
OS:Version,
  {0ed314b0-12d4-4a68-b65c-b95c31588564}, !- Handle
  3.11.0;                                 !- Version Identifier

OS:Site,
  {57022037-f182-4cb2-8266-f94e48fde85e}, !- Handle
  SPb_Pulkovo,                            !- Name
  59.8,                                   !- Latitude {deg}
  30.26,                                  !- Longitude {deg}
  3,                                      !- Time Zone {hr}
  16,                                     !- Elevation {m}
  ;                                       !- Terrain

OS:WeatherFile,
  {f6c6fbc3-8704-4557-82b4-8dffff451f1e}, !- Handle
  St.Petersburg-Pulkovo.AP,               !- City
  SPE,                                    !- State Province Region
  RUS,                                    !- Country
  SRC-TMYx,                               !- Data Source
  260630,                                 !- WMO Number
  59.8,                                   !- Latitude {deg}
  30.263,                                 !- Longitude {deg}
  3,                                      !- Time Zone {hr}
  24.1,                                   !- Elevation {m}
  /Users/m/Documents/Openstudio/weather/Saint-Petersburg.epw, !- Url
  C1F27A3E,                               !- Checksum
  ,                                       !- Start Date Actual Year
  Sunday;                                 !- Start Day of Week

OS:SimulationControl,
  {dc4fe5f2-4c85-465c-87fb-b8817cfb7ef7}, !- Handle
  Yes,                                    !- Do Zone Sizing Calculation
  Yes,                                    !- Do System Sizing Calculation
  Yes,                                    !- Do Plant Sizing Calculation
  Yes,                                    !- Run Simulation for Sizing Periods
  Yes;                                    !- Run Simulation for Weather File Run Periods

OS:RunPeriod,
  {7c4bcd80-faf1-44d1-9f54-fdbc1c556fd3}, !- Handle
  Run Period 1,                           !- Name
  1,                                      !- Begin Month
  1,                                      !- Begin Day of Month
  12,                                     !- End Month
  31,                                     !- End Day of Month
  ,                                       !- Use Weather File Holidays and Special Days
  ,                                       !- Use Weather File Daylight Saving Period
  ,                                       !- Apply Weekend Holiday Rule
  ,                                       !- Use Weather File Rain Indicators
  ,                                       !- Use Weather File Snow Indicators
  ;                                       !- Number of Times Runperiod to be Repeated

OS:ZoneAirContaminantBalance,
  {e9d1bf16-7fe7-4a78-b091-7c2c8e559dad}, !- Handle
  Yes,                                    !- Carbon Dioxide Concentration
  {c4026f6e-3cee-445a-a1e0-8dbd0fe79a5f}; !- Outdoor Carbon Dioxide Schedule Name

OS:Schedule:Constant,
  {c4026f6e-3cee-445a-a1e0-8dbd0fe79a5f}, !- Handle
  Наружный_CO2_400ppm,            !- Name
  {d09ba1aa-bb91-4cfa-8b1a-7635ef74cc9a}, !- Schedule Type Limits Name
  400;                                    !- Value

OS:ScheduleTypeLimits,
  {d09ba1aa-bb91-4cfa-8b1a-7635ef74cc9a}, !- Handle
  Dimensionless,                          !- Name
  0,                                      !- Lower Limit Value
  ,                                       !- Upper Limit Value
  Continuous;                             !- Numeric Type

OS:Material,
  {1e13f8c0-38ac-4842-9e7c-ce35e1dd3e59}, !- Handle
  Штукатурка_20мм,            !- Name
  Smooth,                                 !- Roughness
  0.02,                                   !- Thickness {m}
  0.7,                                    !- Conductivity {W/m-K}
  1600,                                   !- Density {kg/m3}
  840,                                    !- Specific Heat {J/kg-K}
  0.9,                                    !- Thermal Absorptance
  0.7;                                    !- Solar Absorptance

OS:Material,
  {ac5f4ba5-e77d-4883-bb8c-500cf3d85963}, !- Handle
  Бетон_500мм,                     !- Name
  Smooth,                                 !- Roughness
  0.5,                                    !- Thickness {m}
  1.74,                                   !- Conductivity {W/m-K}
  2200,                                   !- Density {kg/m3}
  840,                                    !- Specific Heat {J/kg-K}
  0.9,                                    !- Thermal Absorptance
  0.7;                                    !- Solar Absorptance

OS:Material,
  {74dac158-421d-42be-872b-f19eafb9a4ef}, !- Handle
  МинВата_100мм,                 !- Name
  Smooth,                                 !- Roughness
  0.1,                                    !- Thickness {m}
  0.042,                                  !- Conductivity {W/m-K}
  80,                                     !- Density {kg/m3}
  840,                                    !- Specific Heat {J/kg-K}
  0.9,                                    !- Thermal Absorptance
  0.7;                                    !- Solar Absorptance

OS:Material,
  {75b78b90-1f3f-4d83-93b5-7fbefb600ddb}, !- Handle
  МинВата_150мм,                 !- Name
  Smooth,                                 !- Roughness
  0.15,                                   !- Thickness {m}
  0.042,                                  !- Conductivity {W/m-K}
  80,                                     !- Density {kg/m3}
  840,                                    !- Specific Heat {J/kg-K}
  0.9,                                    !- Thermal Absorptance
  0.7;                                    !- Solar Absorptance

OS:Material,
  {7df64c23-23ec-4751-a64c-074628e00fb0}, !- Handle
  ЖБ_плита_220мм,                !- Name
  Smooth,                                 !- Roughness
  0.22,                                   !- Thickness {m}
  1.74,                                   !- Conductivity {W/m-K}
  2500,                                   !- Density {kg/m3}
  840,                                    !- Specific Heat {J/kg-K}
  0.9,                                    !- Thermal Absorptance
  0.7;                                    !- Solar Absorptance

OS:Material,
  {61991aa5-14dd-4374-891e-9bb43cb0253d}, !- Handle
  Стяжка_100мм,                   !- Name
  Smooth,                                 !- Roughness
  0.1,                                    !- Thickness {m}
  0.93,                                   !- Conductivity {W/m-K}
  1800,                                   !- Density {kg/m3}
  840,                                    !- Specific Heat {J/kg-K}
  0.9,                                    !- Thermal Absorptance
  0.7;                                    !- Solar Absorptance

OS:Construction,
  {6e2396ff-5bab-46f0-9818-f7a5b4fb099a}, !- Handle
  Стена_наружная,            !- Name
  ,                                       !- Surface Rendering Name
  {1e13f8c0-38ac-4842-9e7c-ce35e1dd3e59}, !- Layer 1
  {ac5f4ba5-e77d-4883-bb8c-500cf3d85963}, !- Layer 2
  {74dac158-421d-42be-872b-f19eafb9a4ef}, !- Layer 3
  {1e13f8c0-38ac-4842-9e7c-ce35e1dd3e59}; !- Layer 4

OS:Construction,
  {63a8e8f2-de72-4732-9640-fbf83b570edb}, !- Handle
  Стена_внутренняя,        !- Name
  ,                                       !- Surface Rendering Name
  {1e13f8c0-38ac-4842-9e7c-ce35e1dd3e59}, !- Layer 1
  {ac5f4ba5-e77d-4883-bb8c-500cf3d85963}, !- Layer 2
  {1e13f8c0-38ac-4842-9e7c-ce35e1dd3e59}; !- Layer 3

OS:Construction,
  {2258e3d0-b1c1-49de-a59f-5b48b1560beb}, !- Handle
  Покрытие_зала,              !- Name
  ,                                       !- Surface Rendering Name
  {75b78b90-1f3f-4d83-93b5-7fbefb600ddb}, !- Layer 1
  {7df64c23-23ec-4751-a64c-074628e00fb0}; !- Layer 2

OS:Construction,
  {2cd350de-afb9-4334-8841-b4dfbdebe545}, !- Handle
  Пол_зала,                        !- Name
  ,                                       !- Surface Rendering Name
  {61991aa5-14dd-4374-891e-9bb43cb0253d}, !- Layer 1
  {7df64c23-23ec-4751-a64c-074628e00fb0}; !- Layer 2

OS:ThermalZone,
  {68537de0-89d4-4872-b317-3c7815083cd5}, !- Handle
  Кинозал_135мест_DCV_HP,      !- Name
  ,                                       !- Multiplier
  ,                                       !- Ceiling Height {m}
  ,                                       !- Volume {m3}
  ,                                       !- Floor Area {m2}
  ,                                       !- Zone Inside Convection Algorithm
  ,                                       !- Zone Outside Convection Algorithm
  ,                                       !- Zone Conditioning Equipment List Name
  {a2af59e7-a958-45aa-8657-7497b2754693}, !- Zone Air Inlet Port List
  {e8d5158b-d26f-4a61-a457-344e273d1050}, !- Zone Air Exhaust Port List
  {6a4d290f-f393-4213-9663-f170687a7365}, !- Zone Air Node Name
  {82a3ccb9-4c5f-4e2c-a5c2-89f00a8e0e29}, !- Zone Return Air Port List
  ,                                       !- Primary Daylighting Control Name
  ,                                       !- Fraction of Zone Controlled by Primary Daylighting Control
  ,                                       !- Secondary Daylighting Control Name
  ,                                       !- Fraction of Zone Controlled by Secondary Daylighting Control
  ,                                       !- Illuminance Map Name
  ,                                       !- Group Rendering Name
  {83912f0a-a513-4b3e-b0f6-be2b39e77b70}, !- Thermostat Name
  No;                                     !- Use Ideal Air Loads

OS:Node,
  {89f668cf-a435-4831-91e0-ea04520d1b4b}, !- Handle
  Node 1,                                 !- Name
  {6a4d290f-f393-4213-9663-f170687a7365}, !- Inlet Port
  ;                                       !- Outlet Port

OS:Connection,
  {6a4d290f-f393-4213-9663-f170687a7365}, !- Handle
  {68537de0-89d4-4872-b317-3c7815083cd5}, !- Source Object
  11,                                     !- Outlet Port
  {89f668cf-a435-4831-91e0-ea04520d1b4b}, !- Target Object
  2;                                      !- Inlet Port

OS:PortList,
  {a2af59e7-a958-45aa-8657-7497b2754693}, !- Handle
  {68537de0-89d4-4872-b317-3c7815083cd5}, !- HVAC Component
  {eb058130-1d55-4f59-92cd-6c35309bf6d3}; !- Port 1

OS:PortList,
  {e8d5158b-d26f-4a61-a457-344e273d1050}, !- Handle
  {68537de0-89d4-4872-b317-3c7815083cd5}; !- HVAC Component

OS:PortList,
  {82a3ccb9-4c5f-4e2c-a5c2-89f00a8e0e29}, !- Handle
  {68537de0-89d4-4872-b317-3c7815083cd5}, !- HVAC Component
  {56ea60a0-54c8-4ec8-b1a5-871493d670a9}; !- Port 1

OS:Sizing:Zone,
  {a028c9b0-2114-4fe8-87aa-8039e1e123a7}, !- Handle
  {68537de0-89d4-4872-b317-3c7815083cd5}, !- Zone or ZoneList Name
  SupplyAirTemperature,                   !- Zone Cooling Design Supply Air Temperature Input Method
  14,                                     !- Zone Cooling Design Supply Air Temperature {C}
  11.11,                                  !- Zone Cooling Design Supply Air Temperature Difference {deltaC}
  SupplyAirTemperature,                   !- Zone Heating Design Supply Air Temperature Input Method
  40,                                     !- Zone Heating Design Supply Air Temperature {C}
  11.11,                                  !- Zone Heating Design Supply Air Temperature Difference {deltaC}
  0.0085,                                 !- Zone Cooling Design Supply Air Humidity Ratio {kg-H2O/kg-air}
  0.008,                                  !- Zone Heating Design Supply Air Humidity Ratio {kg-H2O/kg-air}
  ,                                       !- Zone Heating Sizing Factor
  ,                                       !- Zone Cooling Sizing Factor
  DesignDay,                              !- Cooling Design Air Flow Method
  ,                                       !- Cooling Design Air Flow Rate {m3/s}
  ,                                       !- Cooling Minimum Air Flow per Zone Floor Area {m3/s-m2}
  ,                                       !- Cooling Minimum Air Flow {m3/s}
  ,                                       !- Cooling Minimum Air Flow Fraction
  DesignDay,                              !- Heating Design Air Flow Method
  ,                                       !- Heating Design Air Flow Rate {m3/s}
  ,                                       !- Heating Maximum Air Flow per Zone Floor Area {m3/s-m2}
  ,                                       !- Heating Maximum Air Flow {m3/s}
  ,                                       !- Heating Maximum Air Flow Fraction
  No,                                     !- Account for Dedicated Outdoor Air System
  NeutralSupplyAir,                       !- Dedicated Outdoor Air System Control Strategy
  autosize,                               !- Dedicated Outdoor Air Low Setpoint Temperature for Design {C}
  autosize,                               !- Dedicated Outdoor Air High Setpoint Temperature for Design {C}
  Sensible Load Only No Latent Load,      !- Zone Load Sizing Method
  HumidityRatioDifference,                !- Zone Latent Cooling Design Supply Air Humidity Ratio Input Method
  ,                                       !- Zone Dehumidification Design Supply Air Humidity Ratio {kgWater/kgDryAir}
  0.005,                                  !- Zone Cooling Design Supply Air Humidity Ratio Difference {kgWater/kgDryAir}
  HumidityRatioDifference,                !- Zone Latent Heating Design Supply Air Humidity Ratio Input Method
  ,                                       !- Zone Humidification Design Supply Air Humidity Ratio {kgWater/kgDryAir}
  0.005,                                  !- Zone Humidification Design Supply Air Humidity Ratio Difference {kgWater/kgDryAir}
  ,                                       !- Zone Humidistat Dehumidification Set Point Schedule Name
  ,                                       !- Zone Humidistat Humidification Set Point Schedule Name
  ,                                       !- Design Zone Air Distribution Effectiveness in Cooling Mode
  ,                                       !- Design Zone Air Distribution Effectiveness in Heating Mode
  ,                                       !- Design Zone Secondary Recirculation Fraction {dimensionless}
  ,                                       !- Design Minimum Zone Ventilation Efficiency {dimensionless}
  Coincident,                             !- Sizing Option
  None,                                   !- Heating Coil Sizing Method
  1;                                      !- Maximum Heating Capacity To Cooling Load Sizing Ratio {W/W}

OS:ZoneHVAC:EquipmentList,
  {336c3c7d-7c48-4d89-b3e7-051432d7df0a}, !- Handle
  Zone HVAC Equipment List 1,             !- Name
  {68537de0-89d4-4872-b317-3c7815083cd5}, !- Thermal Zone
  ,                                       !- Load Distribution Scheme
  {00bc9b94-1c9d-4abc-8d21-85f2a946e232}, !- Zone Equipment 1
  1,                                      !- Zone Equipment Cooling Sequence 1
  1,                                      !- Zone Equipment Heating or No-Load Sequence 1
  ,                                       !- Zone Equipment Sequential Cooling Fraction Schedule Name 1
  ;                                       !- Zone Equipment Sequential Heating Fraction Schedule Name 1

OS:Space,
  {a697ab39-ab9c-4b02-a801-8796650dae00}, !- Handle
  Зал_DCV_HP,                          !- Name
  ,                                       !- Space Type Name
  ,                                       !- Default Construction Set Name
  ,                                       !- Default Schedule Set Name
  ,                                       !- Direction of Relative North {deg}
  ,                                       !- X Origin {m}
  ,                                       !- Y Origin {m}
  ,                                       !- Z Origin {m}
  ,                                       !- Building Story Name
  {68537de0-89d4-4872-b317-3c7815083cd5}, !- Thermal Zone Name
  ,                                       !- Part of Total Floor Area
  {ae1c4c2f-ff5c-48f0-8db3-edc7d9bfb30d}; !- Design Specification Outdoor Air Object Name

OS:Surface,
  {73ea6c5d-e267-4102-9208-cd13ed1876b2}, !- Handle
  Пол,                                 !- Name
  Floor,                                  !- Surface Type
  {2cd350de-afb9-4334-8841-b4dfbdebe545}, !- Construction Name
  {a697ab39-ab9c-4b02-a801-8796650dae00}, !- Space Name
  Ground,                                 !- Outside Boundary Condition
  ,                                       !- Outside Boundary Condition Object
  NoSun,                                  !- Sun Exposure
  NoWind,                                 !- Wind Exposure
  ,                                       !- View Factor to Ground
  ,                                       !- Number of Vertices
  0, 0, 0,                                !- X,Y,Z Vertex 1 {m}
  0, 8.48, 0,                             !- X,Y,Z Vertex 2 {m}
  15.68, 8.48, 0,                         !- X,Y,Z Vertex 3 {m}
  15.68, 0, 0;                            !- X,Y,Z Vertex 4 {m}

OS:Surface,
  {9ac87614-9063-42aa-b994-67a2b976e111}, !- Handle
  Потолок,                         !- Name
  RoofCeiling,                            !- Surface Type
  {2258e3d0-b1c1-49de-a59f-5b48b1560beb}, !- Construction Name
  {a697ab39-ab9c-4b02-a801-8796650dae00}, !- Space Name
  Outdoors,                               !- Outside Boundary Condition
  ,                                       !- Outside Boundary Condition Object
  NoSun,                                  !- Sun Exposure
  NoWind,                                 !- Wind Exposure
  ,                                       !- View Factor to Ground
  ,                                       !- Number of Vertices
  0, 0, 4.85,                             !- X,Y,Z Vertex 1 {m}
  15.68, 0, 4.85,                         !- X,Y,Z Vertex 2 {m}
  15.68, 8.48, 4.85,                      !- X,Y,Z Vertex 3 {m}
  0, 8.48, 4.85;                          !- X,Y,Z Vertex 4 {m}

OS:Surface,
  {5ddd3f43-dca8-4118-bff0-8285a2bf8c7a}, !- Handle
  Стена_Ю,                          !- Name
  Wall,                                   !- Surface Type
  {6e2396ff-5bab-46f0-9818-f7a5b4fb099a}, !- Construction Name
  {a697ab39-ab9c-4b02-a801-8796650dae00}, !- Space Name
  Outdoors,                               !- Outside Boundary Condition
  ,                                       !- Outside Boundary Condition Object
  SunExposed,                             !- Sun Exposure
  WindExposed,                            !- Wind Exposure
  ,                                       !- View Factor to Ground
  ,                                       !- Number of Vertices
  15.68, 0, 0,                            !- X,Y,Z Vertex 1 {m}
  15.68, 0, 4.85,                         !- X,Y,Z Vertex 2 {m}
  0, 0, 4.85,                             !- X,Y,Z Vertex 3 {m}
  0, 0, 0;                                !- X,Y,Z Vertex 4 {m}

OS:Surface,
  {cf512516-a4da-4a72-b354-a0ac8ffe92d0}, !- Handle
  Стена_С,                          !- Name
  Wall,                                   !- Surface Type
  {6e2396ff-5bab-46f0-9818-f7a5b4fb099a}, !- Construction Name
  {a697ab39-ab9c-4b02-a801-8796650dae00}, !- Space Name
  Outdoors,                               !- Outside Boundary Condition
  ,                                       !- Outside Boundary Condition Object
  SunExposed,                             !- Sun Exposure
  WindExposed,                            !- Wind Exposure
  ,                                       !- View Factor to Ground
  ,                                       !- Number of Vertices
  0, 8.48, 0,                             !- X,Y,Z Vertex 1 {m}
  0, 8.48, 4.85,                          !- X,Y,Z Vertex 2 {m}
  15.68, 8.48, 4.85,                      !- X,Y,Z Vertex 3 {m}
  15.68, 8.48, 0;                         !- X,Y,Z Vertex 4 {m}

OS:Surface,
  {43fcddcc-34a8-46c2-9c5e-0b7da2c4dacb}, !- Handle
  Стена_З,                          !- Name
  Wall,                                   !- Surface Type
  {63a8e8f2-de72-4732-9640-fbf83b570edb}, !- Construction Name
  {a697ab39-ab9c-4b02-a801-8796650dae00}, !- Space Name
  Outdoors,                               !- Outside Boundary Condition
  ,                                       !- Outside Boundary Condition Object
  SunExposed,                             !- Sun Exposure
  WindExposed,                            !- Wind Exposure
  ,                                       !- View Factor to Ground
  ,                                       !- Number of Vertices
  0, 0, 0,                                !- X,Y,Z Vertex 1 {m}
  0, 0, 4.85,                             !- X,Y,Z Vertex 2 {m}
  0, 8.48, 4.85,                          !- X,Y,Z Vertex 3 {m}
  0, 8.48, 0;                             !- X,Y,Z Vertex 4 {m}

OS:Surface,
  {68d1c70f-aedf-432d-95e2-4dffc8c95639}, !- Handle
  Стена_В,                          !- Name
  Wall,                                   !- Surface Type
  {63a8e8f2-de72-4732-9640-fbf83b570edb}, !- Construction Name
  {a697ab39-ab9c-4b02-a801-8796650dae00}, !- Space Name
  Outdoors,                               !- Outside Boundary Condition
  ,                                       !- Outside Boundary Condition Object
  SunExposed,                             !- Sun Exposure
  WindExposed,                            !- Wind Exposure
  ,                                       !- View Factor to Ground
  ,                                       !- Number of Vertices
  15.68, 8.48, 0,                         !- X,Y,Z Vertex 1 {m}
  15.68, 8.48, 4.85,                      !- X,Y,Z Vertex 2 {m}
  15.68, 0, 4.85,                         !- X,Y,Z Vertex 3 {m}
  15.68, 0, 0;                            !- X,Y,Z Vertex 4 {m}

OS:ScheduleTypeLimits,
  {228bc956-ef46-4f5b-86b2-2baef43752e4}, !- Handle
  Заполняемость_DCV_HP_Limits, !- Name
  0,                                      !- Lower Limit Value
  1,                                      !- Upper Limit Value
  Continuous,                             !- Numeric Type
  Dimensionless;                          !- Unit Type

OS:Schedule:Ruleset,
  {4e17e279-f5cb-495e-839b-cf9d7fa620a7}, !- Handle
  Заполняемость_DCV_HP,      !- Name
  {228bc956-ef46-4f5b-86b2-2baef43752e4}, !- Schedule Type Limits Name
  {fd39fc48-677c-4128-8b29-4fe8c9d7cc8d}; !- Default Day Schedule Name

OS:Schedule:Day,
  {fd39fc48-677c-4128-8b29-4fe8c9d7cc8d}, !- Handle
  Schedule Day 1,                         !- Name
  {228bc956-ef46-4f5b-86b2-2baef43752e4}, !- Schedule Type Limits Name
  ,                                       !- Interpolate to Timestep
  1,                                      !- Hour 1
  0,                                      !- Minute 1
  0,                                      !- Value Until Time 1
  2,                                      !- Hour 2
  0,                                      !- Minute 2
  0,                                      !- Value Until Time 2
  3,                                      !- Hour 3
  0,                                      !- Minute 3
  0,                                      !- Value Until Time 3
  4,                                      !- Hour 4
  0,                                      !- Minute 4
  0,                                      !- Value Until Time 4
  5,                                      !- Hour 5
  0,                                      !- Minute 5
  0,                                      !- Value Until Time 5
  6,                                      !- Hour 6
  0,                                      !- Minute 6
  0,                                      !- Value Until Time 6
  7,                                      !- Hour 7
  0,                                      !- Minute 7
  0,                                      !- Value Until Time 7
  8,                                      !- Hour 8
  0,                                      !- Minute 8
  0,                                      !- Value Until Time 8
  9,                                      !- Hour 9
  0,                                      !- Minute 9
  0.1,                                    !- Value Until Time 9
  10,                                     !- Hour 10
  0,                                      !- Minute 10
  0.1,                                    !- Value Until Time 10
  11,                                     !- Hour 11
  0,                                      !- Minute 11
  0.2,                                    !- Value Until Time 11
  12,                                     !- Hour 12
  0,                                      !- Minute 12
  0.85,                                   !- Value Until Time 12
  13,                                     !- Hour 13
  0,                                      !- Minute 13
  0.85,                                   !- Value Until Time 13
  14,                                     !- Hour 14
  0,                                      !- Minute 14
  0.85,                                   !- Value Until Time 14
  15,                                     !- Hour 15
  0,                                      !- Minute 15
  0.85,                                   !- Value Until Time 15
  16,                                     !- Hour 16
  0,                                      !- Minute 16
  0.15,                                   !- Value Until Time 16
  17,                                     !- Hour 17
  0,                                      !- Minute 17
  0.8,                                    !- Value Until Time 17
  18,                                     !- Hour 18
  0,                                      !- Minute 18
  0.8,                                    !- Value Until Time 18
  19,                                     !- Hour 19
  0,                                      !- Minute 19
  0.15,                                   !- Value Until Time 19
  20,                                     !- Hour 20
  0,                                      !- Minute 20
  0.92,                                   !- Value Until Time 20
  21,                                     !- Hour 21
  0,                                      !- Minute 21
  0.92,                                   !- Value Until Time 21
  22,                                     !- Hour 22
  0,                                      !- Minute 22
  0.2,                                    !- Value Until Time 22
  23,                                     !- Hour 23
  0,                                      !- Minute 23
  0.82,                                   !- Value Until Time 23
  24,                                     !- Hour 24
  0,                                      !- Minute 24
  0.82;                                   !- Value Until Time 24

OS:Schedule:Rule,
  {1021d665-3fc7-476e-a92b-d32ab0bd7212}, !- Handle
  Schedule Rule 1,                        !- Name
  {4e17e279-f5cb-495e-839b-cf9d7fa620a7}, !- Schedule Ruleset Name
  0,                                      !- Rule Order
  {e4e42b3e-02ab-41fd-86b0-912464486fe1}, !- Day Schedule Name
  Yes,                                    !- Apply Sunday
  ,                                       !- Apply Monday
  ,                                       !- Apply Tuesday
  ,                                       !- Apply Wednesday
  ,                                       !- Apply Thursday
  ,                                       !- Apply Friday
  Yes;                                    !- Apply Saturday

OS:Schedule:Day,
  {e4e42b3e-02ab-41fd-86b0-912464486fe1}, !- Handle
  Schedule Day 2,                         !- Name
  {228bc956-ef46-4f5b-86b2-2baef43752e4}, !- Schedule Type Limits Name
  ,                                       !- Interpolate to Timestep
  1,                                      !- Hour 1
  0,                                      !- Minute 1
  0,                                      !- Value Until Time 1
  2,                                      !- Hour 2
  0,                                      !- Minute 2
  0,                                      !- Value Until Time 2
  3,                                      !- Hour 3
  0,                                      !- Minute 3
  0,                                      !- Value Until Time 3
  4,                                      !- Hour 4
  0,                                      !- Minute 4
  0,                                      !- Value Until Time 4
  5,                                      !- Hour 5
  0,                                      !- Minute 5
  0,                                      !- Value Until Time 5
  6,                                      !- Hour 6
  0,                                      !- Minute 6
  0,                                      !- Value Until Time 6
  7,                                      !- Hour 7
  0,                                      !- Minute 7
  0,                                      !- Value Until Time 7
  8,                                      !- Hour 8
  0,                                      !- Minute 8
  0,                                      !- Value Until Time 8
  9,                                      !- Hour 9
  0,                                      !- Minute 9
  0.1,                                    !- Value Until Time 9
  10,                                     !- Hour 10
  0,                                      !- Minute 10
  0.1,                                    !- Value Until Time 10
  11,                                     !- Hour 11
  0,                                      !- Minute 11
  0.88,                                   !- Value Until Time 11
  12,                                     !- Hour 12
  0,                                      !- Minute 12
  0.88,                                   !- Value Until Time 12
  13,                                     !- Hour 13
  0,                                      !- Minute 13
  0.92,                                   !- Value Until Time 13
  14,                                     !- Hour 14
  0,                                      !- Minute 14