
OS:Version,
  {f0ddb2e7-bbed-4560-89a3-1c8e6af7c30e}, !- Handle
  3.11.0;                                 !- Version Identifier

OS:Site,
  {9c56f2e3-c6c6-4a5f-9a5e-8a55bf673a4f}, !- Handle
  SPb_Pulkovo,                            !- Name
  59.8,                                   !- Latitude {deg}
  30.26,                                  !- Longitude {deg}
  3,                                      !- Time Zone {hr}
  16,                                     !- Elevation {m}
  ;                                       !- Terrain

OS:WeatherFile,
  {498756b8-326e-459b-ae43-a020dc715aa9}, !- Handle
  St.Petersburg-Pulkovo.AP,               !- City
  SPE,                                    !- State Province Region
  RUS,                                    !- Country
  SRC-TMYx,                               !- Data Source
  260630,                                 !- WMO Number
  59.8,                                   !- Latitude {deg}
  30.263,                                 !- Longitude {deg}
  3,                                      !- Time Zone {hr}
  24.1,                                   !- Elevation {m}
  /Users/m/Documents/Openstudio/weather/Saint-Petersburg.epw, !- Url
  C1F27A3E,                               !- Checksum
  ,                                       !- Start Date Actual Year
  Sunday;                                 !- Start Day of Week

OS:SimulationControl,
  {cf10d837-0dcf-4afc-9c91-fe1398e99eec}, !- Handle
  Yes,                                    !- Do Zone Sizing Calculation
  Yes,                                    !- Do System Sizing Calculation
  Yes,                                    !- Do Plant Sizing Calculation
  Yes,                                    !- Run Simulation for Sizing Periods
  Yes;                                    !- Run Simulation for Weather File Run Periods

OS:RunPeriod,
  {082ca3e1-e45a-48c7-936c-26faf08529a5}, !- Handle
  Run Period 1,                           !- Name
  1,                                      !- Begin Month
  1,                                      !- Begin Day of Month
  12,                                     !- End Month
  31,                                     !- End Day of Month
  ,                                       !- Use Weather File Holidays and Special Days
  ,                                       !- Use Weather File Daylight Saving Period
  ,                                       !- Apply Weekend Holiday Rule
  ,                                       !- Use Weather File Rain Indicators
  ,                                       !- Use Weather File Snow Indicators
  ;                                       !- Number of Times Runperiod to be Repeated

OS:ZoneAirContaminantBalance,
  {6dabbef8-5d6d-4c62-baff-1f3383f7c02a}, !- Handle
  Yes,                                    !- Carbon Dioxide Concentration
  {63bf2121-e2e3-481c-abab-6a9776f45d81}; !- Outdoor Carbon Dioxide Schedule Name

OS:Schedule:Constant,
  {63bf2121-e2e3-481c-abab-6a9776f45d81}, !- Handle
  Наружный_CO2_400ppm,            !- Name
  {8441d7f4-878c-4882-adf7-562805b269c3}, !- Schedule Type Limits Name
  400;                                    !- Value

OS:ScheduleTypeLimits,
  {8441d7f4-878c-4882-adf7-562805b269c3}, !- Handle
  Dimensionless,                          !- Name
  0,                                      !- Lower Limit Value
  ,                                       !- Upper Limit Value
  Continuous;                             !- Numeric Type

OS:Material,
  {9a3e6056-3d34-4b5c-b64b-baacdb3abc33}, !- Handle
  Штукатурка_20мм,            !- Name
  Smooth,                                 !- Roughness
  0.02,                                   !- Thickness {m}
  0.7,                                    !- Conductivity {W/m-K}
  1600,                                   !- Density {kg/m3}
  840,                                    !- Specific Heat {J/kg-K}
  0.9,                                    !- Thermal Absorptance
  0.7;                                    !- Solar Absorptance

OS:Material,
  {d731de43-be80-4523-aa2f-369b7b15ff3c}, !- Handle
  Бетон_500мм,                     !- Name
  Smooth,                                 !- Roughness
  0.5,                                    !- Thickness {m}
  1.74,                                   !- Conductivity {W/m-K}
  2200,                                   !- Density {kg/m3}
  840,                                    !- Specific Heat {J/kg-K}
  0.9,                                    !- Thermal Absorptance
  0.7;                                    !- Solar Absorptance

OS:Material,
  {0c271bac-edee-473e-a689-457cbd284bce}, !- Handle
  МинВата_100мм,                 !- Name
  Smooth,                                 !- Roughness
  0.1,                                    !- Thickness {m}
  0.042,                                  !- Conductivity {W/m-K}
  80,                                     !- Density {kg/m3}
  840,                                    !- Specific Heat {J/kg-K}
  0.9,                                    !- Thermal Absorptance
  0.7;                                    !- Solar Absorptance

OS:Material,
  {59212cae-dda1-4b98-b323-00c2b0be4e7c}, !- Handle
  МинВата_150мм,                 !- Name
  Smooth,                                 !- Roughness
  0.15,                                   !- Thickness {m}
  0.042,                                  !- Conductivity {W/m-K}
  80,                                     !- Density {kg/m3}
  840,                                    !- Specific Heat {J/kg-K}
  0.9,                                    !- Thermal Absorptance
  0.7;                                    !- Solar Absorptance

OS:Material,
  {d62ad9f1-58ce-4019-9ec3-ced7f4faa1db}, !- Handle
  ЖБ_плита_220мм,                !- Name
  Smooth,                                 !- Roughness
  0.22,                                   !- Thickness {m}
  1.74,                                   !- Conductivity {W/m-K}
  2500,                                   !- Density {kg/m3}
  840,                                    !- Specific Heat {J/kg-K}
  0.9,                                    !- Thermal Absorptance
  0.7;                                    !- Solar Absorptance

OS:Material,
  {cef57167-7545-451f-b9dc-3377e0143b66}, !- Handle
  Стяжка_100мм,                   !- Name
  Smooth,                                 !- Roughness
  0.1,                                    !- Thickness {m}
  0.93,                                   !- Conductivity {W/m-K}
  1800,                                   !- Density {kg/m3}
  840,                                    !- Specific Heat {J/kg-K}
  0.9,                                    !- Thermal Absorptance
  0.7;                                    !- Solar Absorptance

OS:Construction,
  {f16a02e9-5882-4c00-a8ae-3ea232c8b541}, !- Handle
  Стена_наружная,            !- Name
  ,                                       !- Surface Rendering Name
  {9a3e6056-3d34-4b5c-b64b-baacdb3abc33}, !- Layer 1
  {d731de43-be80-4523-aa2f-369b7b15ff3c}, !- Layer 2
  {0c271bac-edee-473e-a689-457cbd284bce}, !- Layer 3
  {9a3e6056-3d34-4b5c-b64b-baacdb3abc33}; !- Layer 4

OS:Construction,
  {c2c9226b-6c7e-4864-838c-045f6e0ca0b2}, !- Handle
  Стена_внутренняя,        !- Name
  ,                                       !- Surface Rendering Name
  {9a3e6056-3d34-4b5c-b64b-baacdb3abc33}, !- Layer 1
  {d731de43-be80-4523-aa2f-369b7b15ff3c}, !- Layer 2
  {9a3e6056-3d34-4b5c-b64b-baacdb3abc33}; !- Layer 3

OS:Construction,
  {80c9e3a3-059f-43ea-9b9a-dce3814a5bf5}, !- Handle
  Покрытие_зала,              !- Name
  ,                                       !- Surface Rendering Name
  {59212cae-dda1-4b98-b323-00c2b0be4e7c}, !- Layer 1
  {d62ad9f1-58ce-4019-9ec3-ced7f4faa1db}; !- Layer 2

OS:Construction,
  {357c97c1-4b9c-4254-80bf-56cf4dcdf42f}, !- Handle
  Пол_зала,                        !- Name
  ,                                       !- Surface Rendering Name
  {cef57167-7545-451f-b9dc-3377e0143b66}, !- Layer 1
  {d62ad9f1-58ce-4019-9ec3-ced7f4faa1db}; !- Layer 2

OS:ThermalZone,
  {c6a677eb-9d28-4a4b-af32-4f446f561714}, !- Handle
  Кинозал_135мест_Base,        !- Name
  ,                                       !- Multiplier
  ,                                       !- Ceiling Height {m}
  ,                                       !- Volume {m3}
  ,                                       !- Floor Area {m2}
  ,                                       !- Zone Inside Convection Algorithm
  ,                                       !- Zone Outside Convection Algorithm
  ,                                       !- Zone Conditioning Equipment List Name
  {2529a33c-5aa3-41df-8e8c-edde29c9e0b0}, !- Zone Air Inlet Port List
  {0bfcebf1-7d36-482f-af9d-214fc1d9ed55}, !- Zone Air Exhaust Port List
  {adafb78f-a709-4c3e-a37e-c5bd8de74208}, !- Zone Air Node Name
  {c9b7b180-1f75-49fc-bfd4-7b0d0d33afba}, !- Zone Return Air Port List
  ,                                       !- Primary Daylighting Control Name
  ,                                       !- Fraction of Zone Controlled by Primary Daylighting Control
  ,                                       !- Secondary Daylighting Control Name
  ,                                       !- Fraction of Zone Controlled by Secondary Daylighting Control
  ,                                       !- Illuminance Map Name
  ,                                       !- Group Rendering Name
  {643c8f61-ae6f-4ee5-95d9-2f04f01ced39}, !- Thermostat Name
  No;                                     !- Use Ideal Air Loads

OS:Node,
  {bfc49633-37c2-4e74-bc27-6c67dbe9ebb0}, !- Handle
  Node 1,                                 !- Name
  {adafb78f-a709-4c3e-a37e-c5bd8de74208}, !- Inlet Port
  ;                                       !- Outlet Port

OS:Connection,
  {adafb78f-a709-4c3e-a37e-c5bd8de74208}, !- Handle
  {c6a677eb-9d28-4a4b-af32-4f446f561714}, !- Source Object
  11,                                     !- Outlet Port
  {bfc49633-37c2-4e74-bc27-6c67dbe9ebb0}, !- Target Object
  2;                                      !- Inlet Port

OS:PortList,
  {2529a33c-5aa3-41df-8e8c-edde29c9e0b0}, !- Handle
  {c6a677eb-9d28-4a4b-af32-4f446f561714}, !- HVAC Component
  {c303342e-dfe8-46e0-9ae5-6f7016de4c75}; !- Port 1

OS:PortList,
  {0bfcebf1-7d36-482f-af9d-214fc1d9ed55}, !- Handle
  {c6a677eb-9d28-4a4b-af32-4f446f561714}; !- HVAC Component

OS:PortList,
  {c9b7b180-1f75-49fc-bfd4-7b0d0d33afba}, !- Handle
  {c6a677eb-9d28-4a4b-af32-4f446f561714}, !- HVAC Component
  {35f469de-6dba-4b7c-9825-c9f851db1e36}; !- Port 1

OS:Sizing:Zone,
  {e8d3da37-c5f2-4e2b-ba02-05ece9c7b470}, !- Handle
  {c6a677eb-9d28-4a4b-af32-4f446f561714}, !- Zone or ZoneList Name
  SupplyAirTemperature,                   !- Zone Cooling Design Supply Air Temperature Input Method
  14,                                     !- Zone Cooling Design Supply Air Temperature {C}
  11.11,                                  !- Zone Cooling Design Supply Air Temperature Difference {deltaC}
  SupplyAirTemperature,                   !- Zone Heating Design Supply Air Temperature Input Method
  40,                                     !- Zone Heating Design Supply Air Temperature {C}
  11.11,                                  !- Zone Heating Design Supply Air Temperature Difference {deltaC}
  0.0085,                                 !- Zone Cooling Design Supply Air Humidity Ratio {kg-H2O/kg-air}
  0.008,                                  !- Zone Heating Design Supply Air Humidity Ratio {kg-H2O/kg-air}
  ,                                       !- Zone Heating Sizing Factor
  ,                                       !- Zone Cooling Sizing Factor
  DesignDay,                              !- Cooling Design Air Flow Method
  ,                                       !- Cooling Design Air Flow Rate {m3/s}
  ,                                       !- Cooling Minimum Air Flow per Zone Floor Area {m3/s-m2}
  ,                                       !- Cooling Minimum Air Flow {m3/s}
  ,                                       !- Cooling Minimum Air Flow Fraction
  DesignDay,                              !- Heating Design Air Flow Method
  ,                                       !- Heating Design Air Flow Rate {m3/s}
  ,                                       !- Heating Maximum Air Flow per Zone Floor Area {m3/s-m2}
  ,                                       !- Heating Maximum Air Flow {m3/s}
  ,                                       !- Heating Maximum Air Flow Fraction
  No,                                     !- Account for Dedicated Outdoor Air System
  NeutralSupplyAir,                       !- Dedicated Outdoor Air System Control Strategy
  autosize,                               !- Dedicated Outdoor Air Low Setpoint Temperature for Design {C}
  autosize,                               !- Dedicated Outdoor Air High Setpoint Temperature for Design {C}
  Sensible Load Only No Latent Load,      !- Zone Load Sizing Method
  HumidityRatioDifference,                !- Zone Latent Cooling Design Supply Air Humidity Ratio Input Method
  ,                                       !- Zone Dehumidification Design Supply Air Humidity Ratio {kgWater/kgDryAir}
  0.005,                                  !- Zone Cooling Design Supply Air Humidity Ratio Difference {kgWater/kgDryAir}
  HumidityRatioDifference,                !- Zone Latent Heating Design Supply Air Humidity Ratio Input Method
  ,                                       !- Zone Humidification Design Supply Air Humidity Ratio {kgWater/kgDryAir}
  0.005,                                  !- Zone Humidification Design Supply Air Humidity Ratio Difference {kgWater/kgDryAir}
  ,                                       !- Zone Humidistat Dehumidification Set Point Schedule Name
  ,                                       !- Zone Humidistat Humidification Set Point Schedule Name
  ,                                       !- Design Zone Air Distribution Effectiveness in Cooling Mode
  ,                                       !- Design Zone Air Distribution Effectiveness in Heating Mode
  ,                                       !- Design Zone Secondary Recirculation Fraction {dimensionless}
  ,                                       !- Design Minimum Zone Ventilation Efficiency {dimensionless}
  Coincident,                             !- Sizing Option
  None,                                   !- Heating Coil Sizing Method
  1;                                      !- Maximum Heating Capacity To Cooling Load Sizing Ratio {W/W}

OS:ZoneHVAC:EquipmentList,
  {c9dd675a-240f-4733-bab2-c13f6ec620c7}, !- Handle
  Zone HVAC Equipment List 1,             !- Name
  {c6a677eb-9d28-4a4b-af32-4f446f561714}, !- Thermal Zone
  ,                                       !- Load Distribution Scheme
  {27a12075-92c0-41ef-b301-0b3411ce0f8a}, !- Zone Equipment 1
  1,                                      !- Zone Equipment Cooling Sequence 1
  1,                                      !- Zone Equipment Heating or No-Load Sequence 1
  ,                                       !- Zone Equipment Sequential Cooling Fraction Schedule Name 1
  ;                                       !- Zone Equipment Sequential Heating Fraction Schedule Name 1

OS:Space,
  {dcedee45-0a38-4abb-8c24-770e265ad3ae}, !- Handle
  Зал_Base,                            !- Name
  ,                                       !- Space Type Name
  ,                                       !- Default Construction Set Name
  ,                                       !- Default Schedule Set Name
  ,                                       !- Direction of Relative North {deg}
  ,                                       !- X Origin {m}
  ,                                       !- Y Origin {m}
  ,                                       !- Z Origin {m}
  ,                                       !- Building Story Name
  {c6a677eb-9d28-4a4b-af32-4f446f561714}, !- Thermal Zone Name
  ,                                       !- Part of Total Floor Area
  {cf7f92bb-ef91-4a86-96c3-1adbdcd19de7}; !- Design Specification Outdoor Air Object Name

OS:Surface,
  {29a2497d-9976-4468-bc00-3d0b74d58c52}, !- Handle
  Пол,                                 !- Name
  Floor,                                  !- Surface Type
  {357c97c1-4b9c-4254-80bf-56cf4dcdf42f}, !- Construction Name
  {dcedee45-0a38-4abb-8c24-770e265ad3ae}, !- Space Name
  Ground,                                 !- Outside Boundary Condition
  ,                                       !- Outside Boundary Condition Object
  NoSun,                                  !- Sun Exposure
  NoWind,                                 !- Wind Exposure
  ,                                       !- View Factor to Ground
  ,                                       !- Number of Vertices
  0, 0, 0,                                !- X,Y,Z Vertex 1 {m}
  0, 8.48, 0,                             !- X,Y,Z Vertex 2 {m}
  15.68, 8.48, 0,                         !- X,Y,Z Vertex 3 {m}
  15.68, 0, 0;                            !- X,Y,Z Vertex 4 {m}

OS:Surface,
  {7a5490c9-9821-4101-abd6-63cfb5dbce5f}, !- Handle
  Потолок,                         !- Name
  RoofCeiling,                            !- Surface Type
  {80c9e3a3-059f-43ea-9b9a-dce3814a5bf5}, !- Construction Name
  {dcedee45-0a38-4abb-8c24-770e265ad3ae}, !- Space Name
  Outdoors,                               !- Outside Boundary Condition
  ,                                       !- Outside Boundary Condition Object
  NoSun,                                  !- Sun Exposure
  NoWind,                                 !- Wind Exposure
  ,                                       !- View Factor to Ground
  ,                                       !- Number of Vertices
  0, 0, 4.85,                             !- X,Y,Z Vertex 1 {m}
  15.68, 0, 4.85,                         !- X,Y,Z Vertex 2 {m}
  15.68, 8.48, 4.85,                      !- X,Y,Z Vertex 3 {m}
  0, 8.48, 4.85;                          !- X,Y,Z Vertex 4 {m}

OS:Surface,
  {b19b1c44-ef0d-4225-827b-560c6c8a5a13}, !- Handle
  Стена_Ю,                          !- Name
  Wall,                                   !- Surface Type
  {f16a02e9-5882-4c00-a8ae-3ea232c8b541}, !- Construction Name
  {dcedee45-0a38-4abb-8c24-770e265ad3ae}, !- Space Name
  Outdoors,                               !- Outside Boundary Condition
  ,                                       !- Outside Boundary Condition Object
  SunExposed,                             !- Sun Exposure
  WindExposed,                            !- Wind Exposure
  ,                                       !- View Factor to Ground
  ,                                       !- Number of Vertices
  15.68, 0, 0,                            !- X,Y,Z Vertex 1 {m}
  15.68, 0, 4.85,                         !- X,Y,Z Vertex 2 {m}
  0, 0, 4.85,                             !- X,Y,Z Vertex 3 {m}
  0, 0, 0;                                !- X,Y,Z Vertex 4 {m}

OS:Surface,
  {bc87898c-8fdb-41bb-9f4b-758ca21352ee}, !- Handle
  Стена_С,                          !- Name
  Wall,                                   !- Surface Type
  {f16a02e9-5882-4c00-a8ae-3ea232c8b541}, !- Construction Name
  {dcedee45-0a38-4abb-8c24-770e265ad3ae}, !- Space Name
  Outdoors,                               !- Outside Boundary Condition
  ,                                       !- Outside Boundary Condition Object
  SunExposed,                             !- Sun Exposure
  WindExposed,                            !- Wind Exposure
  ,                                       !- View Factor to Ground
  ,                                       !- Number of Vertices
  0, 8.48, 0,                             !- X,Y,Z Vertex 1 {m}
  0, 8.48, 4.85,                          !- X,Y,Z Vertex 2 {m}
  15.68, 8.48, 4.85,                      !- X,Y,Z Vertex 3 {m}
  15.68, 8.48, 0;                         !- X,Y,Z Vertex 4 {m}

OS:Surface,
  {6cda3c3b-6111-45f7-b853-a7a773f531ab}, !- Handle
  Стена_З,                          !- Name
  Wall,                                   !- Surface Type
  {c2c9226b-6c7e-4864-838c-045f6e0ca0b2}, !- Construction Name
  {dcedee45-0a38-4abb-8c24-770e265ad3ae}, !- Space Name
  Outdoors,                               !- Outside Boundary Condition
  ,                                       !- Outside Boundary Condition Object
  SunExposed,                             !- Sun Exposure
  WindExposed,                            !- Wind Exposure
  ,                                       !- View Factor to Ground
  ,                                       !- Number of Vertices
  0, 0, 0,                                !- X,Y,Z Vertex 1 {m}
  0, 0, 4.85,                             !- X,Y,Z Vertex 2 {m}
  0, 8.48, 4.85,                          !- X,Y,Z Vertex 3 {m}
  0, 8.48, 0;                             !- X,Y,Z Vertex 4 {m}

OS:Surface,
  {b79e20fd-b927-425d-a71b-3667ee3fcea3}, !- Handle
  Стена_В,                          !- Name
  Wall,                                   !- Surface Type
  {c2c9226b-6c7e-4864-838c-045f6e0ca0b2}, !- Construction Name
  {dcedee45-0a38-4abb-8c24-770e265ad3ae}, !- Space Name
  Outdoors,                               !- Outside Boundary Condition
  ,                                       !- Outside Boundary Condition Object
  SunExposed,                             !- Sun Exposure
  WindExposed,                            !- Wind Exposure
  ,                                       !- View Factor to Ground
  ,                                       !- Number of Vertices
  15.68, 8.48, 0,                         !- X,Y,Z Vertex 1 {m}
  15.68, 8.48, 4.85,                      !- X,Y,Z Vertex 2 {m}
  15.68, 0, 4.85,                         !- X,Y,Z Vertex 3 {m}
  15.68, 0, 0;                            !- X,Y,Z Vertex 4 {m}

OS:ScheduleTypeLimits,
  {d51825d7-f52b-4bb2-ab9d-e78b2b2e99ef}, !- Handle
  Заполняемость_Base_Limits, !- Name
  0,                                      !- Lower Limit Value
  1,                                      !- Upper Limit Value
  Continuous,                             !- Numeric Type
  Dimensionless;                          !- Unit Type

OS:Schedule:Ruleset,
  {7d284f61-7717-41e6-8073-b3eb5f0c4fb3}, !- Handle
  Заполняемость_Base,        !- Name
  {d51825d7-f52b-4bb2-ab9d-e78b2b2e99ef}, !- Schedule Type Limits Name
  {f04d4f2b-dabd-40ba-a3a6-ddfea69ad362}; !- Default Day Schedule Name

OS:Schedule:Day,
  {f04d4f2b-dabd-40ba-a3a6-ddfea69ad362}, !- Handle
  Schedule Day 1,                         !- Name
  {d51825d7-f52b-4bb2-ab9d-e78b2b2e99ef}, !- Schedule Type Limits Name
  ,                                       !- Interpolate to Timestep
  1,                                      !- Hour 1
  0,                                      !- Minute 1
  0,                                      !- Value Until Time 1
  2,                                      !- Hour 2
  0,                                      !- Minute 2
  0,                                      !- Value Until Time 2
  3,                                      !- Hour 3
  0,                                      !- Minute 3
  0,                                      !- Value Until Time 3
  4,                                      !- Hour 4
  0,                                      !- Minute 4
  0,                                      !- Value Until Time 4
  5,                                      !- Hour 5
  0,                                      !- Minute 5
  0,                                      !- Value Until Time 5
  6,                                      !- Hour 6
  0,                                      !- Minute 6
  0,                                      !- Value Until Time 6
  7,                                      !- Hour 7
  0,                                      !- Minute 7
  0,                                      !- Value Until Time 7
  8,                                      !- Hour 8
  0,                                      !- Minute 8
  0,                                      !- Value Until Time 8
  9,                                      !- Hour 9
  0,                                      !- Minute 9
  0.1,                                    !- Value Until Time 9
  10,                                     !- Hour 10
  0,                                      !- Minute 10
  0.1,                                    !- Value Until Time 10
  11,                                     !- Hour 11
  0,                                      !- Minute 11
  0.2,                                    !- Value Until Time 11
  12,                                     !- Hour 12
  0,                                      !- Minute 12
  0.85,                                   !- Value Until Time 12
  13,                                     !- Hour 13
  0,                                      !- Minute 13
  0.85,                                   !- Value Until Time 13
  14,                                     !- Hour 14
  0,                                      !- Minute 14
  0.85,                                   !- Value Until Time 14
  15,                                     !- Hour 15
  0,                                      !- Minute 15
  0.85,                                   !- Value Until Time 15
  16,                                     !- Hour 16
  0,                                      !- Minute 16
  0.15,                                   !- Value Until Time 16
  17,                                     !- Hour 17
  0,                                      !- Minute 17
  0.8,                                    !- Value Until Time 17
  18,                                     !- Hour 18
  0,                                      !- Minute 18
  0.8,                                    !- Value Until Time 18
  19,                                     !- Hour 19
  0,                                      !- Minute 19
  0.15,                                   !- Value Until Time 19
  20,                                     !- Hour 20
  0,                                      !- Minute 20
  0.92,                                   !- Value Until Time 20
  21,                                     !- Hour 21
  0,                                      !- Minute 21
  0.92,                                   !- Value Until Time 21
  22,                                     !- Hour 22
  0,                                      !- Minute 22
  0.2,                                    !- Value Until Time 22
  23,                                     !- Hour 23
  0,                                      !- Minute 23
  0.82,                                   !- Value Until Time 23
  24,                                     !- Hour 24
  0,                                      !- Minute 24
  0.82;                                   !- Value Until Time 24

OS:Schedule:Rule,
  {02fe93ed-9e69-465d-878e-bab26b0d6555}, !- Handle
  Schedule Rule 1,                        !- Name
  {7d284f61-7717-41e6-8073-b3eb5f0c4fb3}, !- Schedule Ruleset Name
  0,                                      !- Rule Order
  {e46838e3-f856-462f-9748-235aeed0db63}, !- Day Schedule Name
  Yes,                                    !- Apply Sunday
  ,                                       !- Apply Monday
  ,                                       !- Apply Tuesday
  ,                                       !- Apply Wednesday
  ,                                       !- Apply Thursday
  ,                                       !- Apply Friday
  Yes;                                    !- Apply Saturday

OS:Schedule:Day,
  {e46838e3-f856-462f-9748-235aeed0db63}, !- Handle
  Schedule Day 2,                         !- Name
  {d51825d7-f52b-4bb2-ab9d-e78b2b2e99ef}, !- Schedule Type Limits Name
  ,                                       !- Interpolate to Timestep
  1,                                      !- Hour 1
  0,                                      !- Minute 1
  0,                                      !- Value Until Time 1
  2,                                      !- Hour 2
  0,                                      !- Minute 2
  0,                                      !- Value Until Time 2
  3,                                      !- Hour 3
  0,                                      !- Minute 3
  0,                                      !- Value Until Time 3
  4,                                      !- Hour 4
  0,                                      !- Minute 4
  0,                                      !- Value Until Time 4
  5,                                      !- Hour 5
  0,                                      !- Minute 5
  0,                                      !- Value Until Time 5
  6,                                      !- Hour 6
  0,                                      !- Minute 6
  0,                                      !- Value Until Time 6
  7,                                      !- Hour 7
  0,                                      !- Minute 7
  0,                                      !- Value Until Time 7
  8,                                      !- Hour 8
  0,                                      !- Minute 8
  0,                                      !- Value Until Time 8
  9,                                      !- Hour 9
  0,                                      !- Minute 9
  0.1,                                    !- Value Until Time 9
  10,                                     !- Hour 10
  0,                                      !- Minute 10
  0.1,                                    !- Value Until Time 10
  11,                                     !- Hour 11
  0,                                      !- Minute 11
  0.88,                                   !- Value Until Time 11
  12,                                     !- Hour 12
  0,                                      !- Minute 12
  0.88,                                   !- Value Until Time 12
  13,                                     !- Hour 13
  0,                                      !- Minute 13
  0.92,                                   !- Value Until Time 13
  14,                                     !- Hour 14
  0,                                      !- Minute 14