
OS:Version,
  {2088ecd4-d97c-4d96-bcd5-8fe6856132c5}, !- Handle
  3.11.0;                                 !- Version Identifier

OS:Site,
  {35beec98-15ae-41e0-b5d4-0b052771c2a6}, !- Handle
  SPb_Pulkovo,                            !- Name
  59.8,                                   !- Latitude {deg}
  30.26,                                  !- Longitude {deg}
  3,                                      !- Time Zone {hr}
  16,                                     !- Elevation {m}
  ;                                       !- Terrain

OS:WeatherFile,
  {0918bff1-d6f8-4f46-98d5-eb0587549294}, !- Handle
  St.Petersburg-Pulkovo.AP,               !- City
  SPE,                                    !- State Province Region
  RUS,                                    !- Country
  SRC-TMYx,                               !- Data Source
  260630,                                 !- WMO Number
  59.8,                                   !- Latitude {deg}
  30.263,                                 !- Longitude {deg}
  3,                                      !- Time Zone {hr}
  24.1,                                   !- Elevation {m}
  /Users/m/Documents/Openstudio/weather/Saint-Petersburg.epw, !- Url
  C1F27A3E,                               !- Checksum
  ,                                       !- Start Date Actual Year
  Sunday;                                 !- Start Day of Week

OS:SimulationControl,
  {c4c3c15f-8fe3-480b-9f0f-4a18f91885a0}, !- Handle
  Yes,                                    !- Do Zone Sizing Calculation
  Yes,                                    !- Do System Sizing Calculation
  Yes,                                    !- Do Plant Sizing Calculation
  Yes,                                    !- Run Simulation for Sizing Periods
  Yes;                                    !- Run Simulation for Weather File Run Periods

OS:RunPeriod,
  {eae1beae-555f-45f0-b23a-ef625e86af12}, !- Handle
  Run Period 1,                           !- Name
  1,                                      !- Begin Month
  1,                                      !- Begin Day of Month
  12,                                     !- End Month
  31,                                     !- End Day of Month
  ,                                       !- Use Weather File Holidays and Special Days
  ,                                       !- Use Weather File Daylight Saving Period
  ,                                       !- Apply Weekend Holiday Rule
  ,                                       !- Use Weather File Rain Indicators
  ,                                       !- Use Weather File Snow Indicators
  ;                                       !- Number of Times Runperiod to be Repeated

OS:ZoneAirContaminantBalance,
  {7d9b8175-415a-4360-9327-16a839eb0034}, !- Handle
  Yes,                                    !- Carbon Dioxide Concentration
  {f5069058-54fd-4286-8be4-2ea6ff0469cc}; !- Outdoor Carbon Dioxide Schedule Name

OS:Schedule:Constant,
  {f5069058-54fd-4286-8be4-2ea6ff0469cc}, !- Handle
  Наружный_CO2_400ppm,            !- Name
  {144adce8-0439-4e6a-b5f5-524821d10292}, !- Schedule Type Limits Name
  400;                                    !- Value

OS:ScheduleTypeLimits,
  {144adce8-0439-4e6a-b5f5-524821d10292}, !- Handle
  Dimensionless,                          !- Name
  0,                                      !- Lower Limit Value
  ,                                       !- Upper Limit Value
  Continuous;                             !- Numeric Type

OS:Material,
  {7d8f0c1b-f8b2-4695-9992-1240ad49c49b}, !- Handle
  Штукатурка_20мм,            !- Name
  Smooth,                                 !- Roughness
  0.02,                                   !- Thickness {m}
  0.7,                                    !- Conductivity {W/m-K}
  1600,                                   !- Density {kg/m3}
  840,                                    !- Specific Heat {J/kg-K}
  0.9,                                    !- Thermal Absorptance
  0.7;                                    !- Solar Absorptance

OS:Material,
  {fc69aea8-1eed-4550-92ff-900ebe5a5526}, !- Handle
  Бетон_500мм,                     !- Name
  Smooth,                                 !- Roughness
  0.5,                                    !- Thickness {m}
  1.74,                                   !- Conductivity {W/m-K}
  2200,                                   !- Density {kg/m3}
  840,                                    !- Specific Heat {J/kg-K}
  0.9,                                    !- Thermal Absorptance
  0.7;                                    !- Solar Absorptance

OS:Material,
  {87d2615f-eef9-4d7a-8492-86534622e07e}, !- Handle
  МинВата_100мм,                 !- Name
  Smooth,                                 !- Roughness
  0.1,                                    !- Thickness {m}
  0.042,                                  !- Conductivity {W/m-K}
  80,                                     !- Density {kg/m3}
  840,                                    !- Specific Heat {J/kg-K}
  0.9,                                    !- Thermal Absorptance
  0.7;                                    !- Solar Absorptance

OS:Material,
  {6b525e41-8d94-43f0-86cb-446b359fc456}, !- Handle
  МинВата_150мм,                 !- Name
  Smooth,                                 !- Roughness
  0.15,                                   !- Thickness {m}
  0.042,                                  !- Conductivity {W/m-K}
  80,                                     !- Density {kg/m3}
  840,                                    !- Specific Heat {J/kg-K}
  0.9,                                    !- Thermal Absorptance
  0.7;                                    !- Solar Absorptance

OS:Material,
  {5d858888-01da-4dfd-993d-7c21ef876dd1}, !- Handle
  ЖБ_плита_220мм,                !- Name
  Smooth,                                 !- Roughness
  0.22,                                   !- Thickness {m}
  1.74,                                   !- Conductivity {W/m-K}
  2500,                                   !- Density {kg/m3}
  840,                                    !- Specific Heat {J/kg-K}
  0.9,                                    !- Thermal Absorptance
  0.7;                                    !- Solar Absorptance

OS:Material,
  {555f838c-ec58-4524-adc4-02c279ece002}, !- Handle
  Стяжка_100мм,                   !- Name
  Smooth,                                 !- Roughness
  0.1,                                    !- Thickness {m}
  0.93,                                   !- Conductivity {W/m-K}
  1800,                                   !- Density {kg/m3}
  840,                                    !- Specific Heat {J/kg-K}
  0.9,                                    !- Thermal Absorptance
  0.7;                                    !- Solar Absorptance

OS:Construction,
  {e91347dc-0c10-4d1f-9cae-711963d13a92}, !- Handle
  Стена_наружная,            !- Name
  ,                                       !- Surface Rendering Name
  {7d8f0c1b-f8b2-4695-9992-1240ad49c49b}, !- Layer 1
  {fc69aea8-1eed-4550-92ff-900ebe5a5526}, !- Layer 2
  {87d2615f-eef9-4d7a-8492-86534622e07e}, !- Layer 3
  {7d8f0c1b-f8b2-4695-9992-1240ad49c49b}; !- Layer 4

OS:Construction,
  {e9497fdc-7828-4159-9569-072749fbbe73}, !- Handle
  Стена_внутренняя,        !- Name
  ,                                       !- Surface Rendering Name
  {7d8f0c1b-f8b2-4695-9992-1240ad49c49b}, !- Layer 1
  {fc69aea8-1eed-4550-92ff-900ebe5a5526}, !- Layer 2
  {7d8f0c1b-f8b2-4695-9992-1240ad49c49b}; !- Layer 3

OS:Construction,
  {4fd3b65e-d935-4b88-af93-715095e50c5f}, !- Handle
  Покрытие_зала,              !- Name
  ,                                       !- Surface Rendering Name
  {6b525e41-8d94-43f0-86cb-446b359fc456}, !- Layer 1
  {5d858888-01da-4dfd-993d-7c21ef876dd1}; !- Layer 2

OS:Construction,
  {0e06da39-a5e1-401d-96d8-abdae40e8ae0}, !- Handle
  Пол_зала,                        !- Name
  ,                                       !- Surface Rendering Name
  {555f838c-ec58-4524-adc4-02c279ece002}, !- Layer 1
  {5d858888-01da-4dfd-993d-7c21ef876dd1}; !- Layer 2

OS:ThermalZone,
  {279102b3-fb0e-4422-ae6c-30a5fbd9d5af}, !- Handle
  Кинозал_135мест_DCV,         !- Name
  ,                                       !- Multiplier
  ,                                       !- Ceiling Height {m}
  ,                                       !- Volume {m3}
  ,                                       !- Floor Area {m2}
  ,                                       !- Zone Inside Convection Algorithm
  ,                                       !- Zone Outside Convection Algorithm
  ,                                       !- Zone Conditioning Equipment List Name
  {76a83728-82cc-4a6f-accf-2e2fe8fd028b}, !- Zone Air Inlet Port List
  {df15ea75-3067-48da-b358-f87c75df3cda}, !- Zone Air Exhaust Port List
  {0d66ed33-de57-4280-b4f2-0a3af6d6a02d}, !- Zone Air Node Name
  {cc0a0f0f-4b64-4fec-9010-f34727d8a98a}, !- Zone Return Air Port List
  ,                                       !- Primary Daylighting Control Name
  ,                                       !- Fraction of Zone Controlled by Primary Daylighting Control
  ,                                       !- Secondary Daylighting Control Name
  ,                                       !- Fraction of Zone Controlled by Secondary Daylighting Control
  ,                                       !- Illuminance Map Name
  ,                                       !- Group Rendering Name
  {a128fa7d-bb66-40d7-a308-1ab364380315}, !- Thermostat Name
  No;                                     !- Use Ideal Air Loads

OS:Node,
  {c97af85d-82a4-4192-8483-51e22f4e499c}, !- Handle
  Node 1,                                 !- Name
  {0d66ed33-de57-4280-b4f2-0a3af6d6a02d}, !- Inlet Port
  ;                                       !- Outlet Port

OS:Connection,
  {0d66ed33-de57-4280-b4f2-0a3af6d6a02d}, !- Handle
  {279102b3-fb0e-4422-ae6c-30a5fbd9d5af}, !- Source Object
  11,                                     !- Outlet Port
  {c97af85d-82a4-4192-8483-51e22f4e499c}, !- Target Object
  2;                                      !- Inlet Port

OS:PortList,
  {76a83728-82cc-4a6f-accf-2e2fe8fd028b}, !- Handle
  {279102b3-fb0e-4422-ae6c-30a5fbd9d5af}, !- HVAC Component
  {ab210dc5-20b1-4588-972e-67775f4ca426}; !- Port 1

OS:PortList,
  {df15ea75-3067-48da-b358-f87c75df3cda}, !- Handle
  {279102b3-fb0e-4422-ae6c-30a5fbd9d5af}; !- HVAC Component

OS:PortList,
  {cc0a0f0f-4b64-4fec-9010-f34727d8a98a}, !- Handle
  {279102b3-fb0e-4422-ae6c-30a5fbd9d5af}, !- HVAC Component
  {1b7b790a-9dd4-409a-b5ee-f5eb9aaa3989}; !- Port 1

OS:Sizing:Zone,
  {64492ce3-f1fe-4ac9-ba81-2770dc5717ec}, !- Handle
  {279102b3-fb0e-4422-ae6c-30a5fbd9d5af}, !- Zone or ZoneList Name
  SupplyAirTemperature,                   !- Zone Cooling Design Supply Air Temperature Input Method
  14,                                     !- Zone Cooling Design Supply Air Temperature {C}
  11.11,                                  !- Zone Cooling Design Supply Air Temperature Difference {deltaC}
  SupplyAirTemperature,                   !- Zone Heating Design Supply Air Temperature Input Method
  40,                                     !- Zone Heating Design Supply Air Temperature {C}
  11.11,                                  !- Zone Heating Design Supply Air Temperature Difference {deltaC}
  0.0085,                                 !- Zone Cooling Design Supply Air Humidity Ratio {kg-H2O/kg-air}
  0.008,                                  !- Zone Heating Design Supply Air Humidity Ratio {kg-H2O/kg-air}
  ,                                       !- Zone Heating Sizing Factor
  ,                                       !- Zone Cooling Sizing Factor
  DesignDay,                              !- Cooling Design Air Flow Method
  ,                                       !- Cooling Design Air Flow Rate {m3/s}
  ,                                       !- Cooling Minimum Air Flow per Zone Floor Area {m3/s-m2}
  ,                                       !- Cooling Minimum Air Flow {m3/s}
  ,                                       !- Cooling Minimum Air Flow Fraction
  DesignDay,                              !- Heating Design Air Flow Method
  ,                                       !- Heating Design Air Flow Rate {m3/s}
  ,                                       !- Heating Maximum Air Flow per Zone Floor Area {m3/s-m2}
  ,                                       !- Heating Maximum Air Flow {m3/s}
  ,                                       !- Heating Maximum Air Flow Fraction
  No,                                     !- Account for Dedicated Outdoor Air System
  NeutralSupplyAir,                       !- Dedicated Outdoor Air System Control Strategy
  autosize,                               !- Dedicated Outdoor Air Low Setpoint Temperature for Design {C}
  autosize,                               !- Dedicated Outdoor Air High Setpoint Temperature for Design {C}
  Sensible Load Only No Latent Load,      !- Zone Load Sizing Method
  HumidityRatioDifference,                !- Zone Latent Cooling Design Supply Air Humidity Ratio Input Method
  ,                                       !- Zone Dehumidification Design Supply Air Humidity Ratio {kgWater/kgDryAir}
  0.005,                                  !- Zone Cooling Design Supply Air Humidity Ratio Difference {kgWater/kgDryAir}
  HumidityRatioDifference,                !- Zone Latent Heating Design Supply Air Humidity Ratio Input Method
  ,                                       !- Zone Humidification Design Supply Air Humidity Ratio {kgWater/kgDryAir}
  0.005,                                  !- Zone Humidification Design Supply Air Humidity Ratio Difference {kgWater/kgDryAir}
  ,                                       !- Zone Humidistat Dehumidification Set Point Schedule Name
  ,                                       !- Zone Humidistat Humidification Set Point Schedule Name
  ,                                       !- Design Zone Air Distribution Effectiveness in Cooling Mode
  ,                                       !- Design Zone Air Distribution Effectiveness in Heating Mode
  ,                                       !- Design Zone Secondary Recirculation Fraction {dimensionless}
  ,                                       !- Design Minimum Zone Ventilation Efficiency {dimensionless}
  Coincident,                             !- Sizing Option
  None,                                   !- Heating Coil Sizing Method
  1;                                      !- Maximum Heating Capacity To Cooling Load Sizing Ratio {W/W}

OS:ZoneHVAC:EquipmentList,
  {cb675979-1d4b-4114-842b-39b2f6f196eb}, !- Handle
  Zone HVAC Equipment List 1,             !- Name
  {279102b3-fb0e-4422-ae6c-30a5fbd9d5af}, !- Thermal Zone
  ,                                       !- Load Distribution Scheme
  {c42552b2-4957-4bbf-a90c-2ce466f3891c}, !- Zone Equipment 1
  1,                                      !- Zone Equipment Cooling Sequence 1
  1,                                      !- Zone Equipment Heating or No-Load Sequence 1
  ,                                       !- Zone Equipment Sequential Cooling Fraction Schedule Name 1
  ;                                       !- Zone Equipment Sequential Heating Fraction Schedule Name 1

OS:Space,
  {a5d301e0-e5b5-472d-81e0-8f95eebd8fd4}, !- Handle
  Зал_DCV,                             !- Name
  ,                                       !- Space Type Name
  ,                                       !- Default Construction Set Name
  ,                                       !- Default Schedule Set Name
  ,                                       !- Direction of Relative North {deg}
  ,                                       !- X Origin {m}
  ,                                       !- Y Origin {m}
  ,                                       !- Z Origin {m}
  ,                                       !- Building Story Name
  {279102b3-fb0e-4422-ae6c-30a5fbd9d5af}, !- Thermal Zone Name
  ,                                       !- Part of Total Floor Area
  {cde01b44-b003-4677-bebc-bcd29ce88111}; !- Design Specification Outdoor Air Object Name

OS:Surface,
  {30ec58d5-6d06-4fe0-9dd8-060e011badc4}, !- Handle
  Пол,                                 !- Name
  Floor,                                  !- Surface Type
  {0e06da39-a5e1-401d-96d8-abdae40e8ae0}, !- Construction Name
  {a5d301e0-e5b5-472d-81e0-8f95eebd8fd4}, !- Space Name
  Ground,                                 !- Outside Boundary Condition
  ,                                       !- Outside Boundary Condition Object
  NoSun,                                  !- Sun Exposure
  NoWind,                                 !- Wind Exposure
  ,                                       !- View Factor to Ground
  ,                                       !- Number of Vertices
  0, 0, 0,                                !- X,Y,Z Vertex 1 {m}
  0, 8.48, 0,                             !- X,Y,Z Vertex 2 {m}
  15.68, 8.48, 0,                         !- X,Y,Z Vertex 3 {m}
  15.68, 0, 0;                            !- X,Y,Z Vertex 4 {m}

OS:Surface,
  {d6541185-8367-43ab-84f3-e408daacae58}, !- Handle
  Потолок,                         !- Name
  RoofCeiling,                            !- Surface Type
  {4fd3b65e-d935-4b88-af93-715095e50c5f}, !- Construction Name
  {a5d301e0-e5b5-472d-81e0-8f95eebd8fd4}, !- Space Name
  Outdoors,                               !- Outside Boundary Condition
  ,                                       !- Outside Boundary Condition Object
  NoSun,                                  !- Sun Exposure
  NoWind,                                 !- Wind Exposure
  ,                                       !- View Factor to Ground
  ,                                       !- Number of Vertices
  0, 0, 4.85,                             !- X,Y,Z Vertex 1 {m}
  15.68, 0, 4.85,                         !- X,Y,Z Vertex 2 {m}
  15.68, 8.48, 4.85,                      !- X,Y,Z Vertex 3 {m}
  0, 8.48, 4.85;                          !- X,Y,Z Vertex 4 {m}

OS:Surface,
  {354c29e0-b0d4-440e-af7d-0070c27b7897}, !- Handle
  Стена_Ю,                          !- Name
  Wall,                                   !- Surface Type
  {e91347dc-0c10-4d1f-9cae-711963d13a92}, !- Construction Name
  {a5d301e0-e5b5-472d-81e0-8f95eebd8fd4}, !- Space Name
  Outdoors,                               !- Outside Boundary Condition
  ,                                       !- Outside Boundary Condition Object
  SunExposed,                             !- Sun Exposure
  WindExposed,                            !- Wind Exposure
  ,                                       !- View Factor to Ground
  ,                                       !- Number of Vertices
  15.68, 0, 0,                            !- X,Y,Z Vertex 1 {m}
  15.68, 0, 4.85,                         !- X,Y,Z Vertex 2 {m}
  0, 0, 4.85,                             !- X,Y,Z Vertex 3 {m}
  0, 0, 0;                                !- X,Y,Z Vertex 4 {m}

OS:Surface,
  {f983c46a-c34f-41be-8d93-0f553e037e91}, !- Handle
  Стена_С,                          !- Name
  Wall,                                   !- Surface Type
  {e91347dc-0c10-4d1f-9cae-711963d13a92}, !- Construction Name
  {a5d301e0-e5b5-472d-81e0-8f95eebd8fd4}, !- Space Name
  Outdoors,                               !- Outside Boundary Condition
  ,                                       !- Outside Boundary Condition Object
  SunExposed,                             !- Sun Exposure
  WindExposed,                            !- Wind Exposure
  ,                                       !- View Factor to Ground
  ,                                       !- Number of Vertices
  0, 8.48, 0,                             !- X,Y,Z Vertex 1 {m}
  0, 8.48, 4.85,                          !- X,Y,Z Vertex 2 {m}
  15.68, 8.48, 4.85,                      !- X,Y,Z Vertex 3 {m}
  15.68, 8.48, 0;                         !- X,Y,Z Vertex 4 {m}

OS:Surface,
  {988d395f-d077-43fa-b3a3-ba99fe40e471}, !- Handle
  Стена_З,                          !- Name
  Wall,                                   !- Surface Type
  {e9497fdc-7828-4159-9569-072749fbbe73}, !- Construction Name
  {a5d301e0-e5b5-472d-81e0-8f95eebd8fd4}, !- Space Name
  Outdoors,                               !- Outside Boundary Condition
  ,                                       !- Outside Boundary Condition Object
  SunExposed,                             !- Sun Exposure
  WindExposed,                            !- Wind Exposure
  ,                                       !- View Factor to Ground
  ,                                       !- Number of Vertices
  0, 0, 0,                                !- X,Y,Z Vertex 1 {m}
  0, 0, 4.85,                             !- X,Y,Z Vertex 2 {m}
  0, 8.48, 4.85,                          !- X,Y,Z Vertex 3 {m}
  0, 8.48, 0;                             !- X,Y,Z Vertex 4 {m}

OS:Surface,
  {1b0cb0ba-0645-432d-9cff-4037a45b95c1}, !- Handle
  Стена_В,                          !- Name
  Wall,                                   !- Surface Type
  {e9497fdc-7828-4159-9569-072749fbbe73}, !- Construction Name
  {a5d301e0-e5b5-472d-81e0-8f95eebd8fd4}, !- Space Name
  Outdoors,                               !- Outside Boundary Condition
  ,                                       !- Outside Boundary Condition Object
  SunExposed,                             !- Sun Exposure
  WindExposed,                            !- Wind Exposure
  ,                                       !- View Factor to Ground
  ,                                       !- Number of Vertices
  15.68, 8.48, 0,                         !- X,Y,Z Vertex 1 {m}
  15.68, 8.48, 4.85,                      !- X,Y,Z Vertex 2 {m}
  15.68, 0, 4.85,                         !- X,Y,Z Vertex 3 {m}
  15.68, 0, 0;                            !- X,Y,Z Vertex 4 {m}

OS:ScheduleTypeLimits,
  {377c281a-1ce0-4a40-a950-a04a783293a3}, !- Handle
  Заполняемость_DCV_Limits,  !- Name
  0,                                      !- Lower Limit Value
  1,                                      !- Upper Limit Value
  Continuous,                             !- Numeric Type
  Dimensionless;                          !- Unit Type

OS:Schedule:Ruleset,
  {26b96c10-3013-4ca4-b9d0-ee2781361de8}, !- Handle
  Заполняемость_DCV,         !- Name
  {377c281a-1ce0-4a40-a950-a04a783293a3}, !- Schedule Type Limits Name
  {cf05112f-1f0a-4f35-aebc-68119e84398b}; !- Default Day Schedule Name

OS:Schedule:Day,
  {cf05112f-1f0a-4f35-aebc-68119e84398b}, !- Handle
  Schedule Day 1,                         !- Name
  {377c281a-1ce0-4a40-a950-a04a783293a3}, !- Schedule Type Limits Name
  ,                                       !- Interpolate to Timestep
  1,                                      !- Hour 1
  0,                                      !- Minute 1
  0,                                      !- Value Until Time 1
  2,                                      !- Hour 2
  0,                                      !- Minute 2
  0,                                      !- Value Until Time 2
  3,                                      !- Hour 3
  0,                                      !- Minute 3
  0,                                      !- Value Until Time 3
  4,                                      !- Hour 4
  0,                                      !- Minute 4
  0,                                      !- Value Until Time 4
  5,                                      !- Hour 5
  0,                                      !- Minute 5
  0,                                      !- Value Until Time 5
  6,                                      !- Hour 6
  0,                                      !- Minute 6
  0,                                      !- Value Until Time 6
  7,                                      !- Hour 7
  0,                                      !- Minute 7
  0,                                      !- Value Until Time 7
  8,                                      !- Hour 8
  0,                                      !- Minute 8
  0,                                      !- Value Until Time 8
  9,                                      !- Hour 9
  0,                                      !- Minute 9
  0.1,                                    !- Value Until Time 9
  10,                                     !- Hour 10
  0,                                      !- Minute 10
  0.1,                                    !- Value Until Time 10
  11,                                     !- Hour 11
  0,                                      !- Minute 11
  0.2,                                    !- Value Until Time 11
  12,                                     !- Hour 12
  0,                                      !- Minute 12
  0.85,                                   !- Value Until Time 12
  13,                                     !- Hour 13
  0,                                      !- Minute 13
  0.85,                                   !- Value Until Time 13
  14,                                     !- Hour 14
  0,                                      !- Minute 14
  0.85,                                   !- Value Until Time 14
  15,                                     !- Hour 15
  0,                                      !- Minute 15
  0.85,                                   !- Value Until Time 15
  16,                                     !- Hour 16
  0,                                      !- Minute 16
  0.15,                                   !- Value Until Time 16
  17,                                     !- Hour 17
  0,                                      !- Minute 17
  0.8,                                    !- Value Until Time 17
  18,                                     !- Hour 18
  0,                                      !- Minute 18
  0.8,                                    !- Value Until Time 18
  19,                                     !- Hour 19
  0,                                      !- Minute 19
  0.15,                                   !- Value Until Time 19
  20,                                     !- Hour 20
  0,                                      !- Minute 20
  0.92,                                   !- Value Until Time 20
  21,                                     !- Hour 21
  0,                                      !- Minute 21
  0.92,                                   !- Value Until Time 21
  22,                                     !- Hour 22
  0,                                      !- Minute 22
  0.2,                                    !- Value Until Time 22
  23,                                     !- Hour 23
  0,                                      !- Minute 23
  0.82,                                   !- Value Until Time 23
  24,                                     !- Hour 24
  0,                                      !- Minute 24
  0.82;                                   !- Value Until Time 24

OS:Schedule:Rule,
  {2277e86b-e02e-480a-bc7e-eae4afe5a689}, !- Handle
  Schedule Rule 1,                        !- Name
  {26b96c10-3013-4ca4-b9d0-ee2781361de8}, !- Schedule Ruleset Name
  0,                                      !- Rule Order
  {eeafd69a-acd0-4223-962e-33cece65edc0}, !- Day Schedule Name
  Yes,                                    !- Apply Sunday
  ,                                       !- Apply Monday
  ,                                       !- Apply Tuesday
  ,                                       !- Apply Wednesday
  ,                                       !- Apply Thursday
  ,                                       !- Apply Friday
  Yes;                                    !- Apply Saturday

OS:Schedule:Day,
  {eeafd69a-acd0-4223-962e-33cece65edc0}, !- Handle
  Schedule Day 2,                         !- Name
  {377c281a-1ce0-4a40-a950-a04a783293a3}, !- Schedule Type Limits Name
  ,                                       !- Interpolate to Timestep
  1,                                      !- Hour 1
  0,                                      !- Minute 1
  0,                                      !- Value Until Time 1
  2,                                      !- Hour 2
  0,                                      !- Minute 2
  0,                                      !- Value Until Time 2
  3,                                      !- Hour 3
  0,                                      !- Minute 3
  0,                                      !- Value Until Time 3
  4,                                      !- Hour 4
  0,                                      !- Minute 4
  0,                                      !- Value Until Time 4
  5,                                      !- Hour 5
  0,                                      !- Minute 5
  0,                                      !- Value Until Time 5
  6,                                      !- Hour 6
  0,                                      !- Minute 6
  0,                                      !- Value Until Time 6
  7,                                      !- Hour 7
  0,                                      !- Minute 7
  0,                                      !- Value Until Time 7
  8,                                      !- Hour 8
  0,                                      !- Minute 8
  0,                                      !- Value Until Time 8
  9,                                      !- Hour 9
  0,                                      !- Minute 9
  0.1,                                    !- Value Until Time 9
  10,                                     !- Hour 10
  0,                                      !- Minute 10
  0.1,                                    !- Value Until Time 10
  11,                                     !- Hour 11
  0,                                      !- Minute 11
  0.88,                                   !- Value Until Time 11
  12,                                     !- Hour 12
  0,                                      !- Minute 12
  0.88,                                   !- Value Until Time 12
  13,                                     !- Hour 13
  0,                                      !- Minute 13
  0.92,                                   !- Value Until Time 13
  14,                                     !- Hour 14
  0,                                      !- Minute 14