
OS:Version,
  {c43e38c3-5085-4a3d-822a-f5c4d1a69b5c}, !- Handle
  3.10.0;                                 !- Version Identifier

OS:Site,
  {5df0a434-ea99-4f6d-87cd-5712f5b5f213}, !- Handle
  SPb_Pulkovo,                            !- Name
  59.8,                                   !- Latitude {deg}
  30.26,                                  !- Longitude {deg}
  3,                                      !- Time Zone {hr}
  16,                                     !- Elevation {m}
  ;                                       !- Terrain

OS:WeatherFile,
  {e06484c2-e6e3-4127-be6b-7e57330ef729}, !- Handle
  St.Petersburg-Pulkovo.AP,               !- City
  SPE,                                    !- State Province Region
  RUS,                                    !- Country
  SRC-TMYx,                               !- Data Source
  260630,                                 !- WMO Number
  59.8,                                   !- Latitude {deg}
  30.263,                                 !- Longitude {deg}
  3,                                      !- Time Zone {hr}
  24.1,                                   !- Elevation {m}
  /Users/m/Documents/Openstudio/weather/Saint-Petersburg.epw, !- Url
  C1F27A3E,                               !- Checksum
  ,                                       !- Start Date Actual Year
  Sunday;                                 !- Start Day of Week

OS:SimulationControl,
  {7db0f3ce-3441-4a0d-85f2-0f62b9718792}, !- Handle
  Yes,                                    !- Do Zone Sizing Calculation
  Yes,                                    !- Do System Sizing Calculation
  Yes,                                    !- Do Plant Sizing Calculation
  Yes,                                    !- Run Simulation for Sizing Periods
  Yes;                                    !- Run Simulation for Weather File Run Periods

OS:RunPeriod,
  {c0d1cee7-29b7-40f3-9ce1-d3d10c482e32}, !- Handle
  Run Period 1,                           !- Name
  1,                                      !- Begin Month
  1,                                      !- Begin Day of Month
  12,                                     !- End Month
  31,                                     !- End Day of Month
  ,                                       !- Use Weather File Holidays and Special Days
  ,                                       !- Use Weather File Daylight Saving Period
  ,                                       !- Apply Weekend Holiday Rule
  ,                                       !- Use Weather File Rain Indicators
  ,                                       !- Use Weather File Snow Indicators
  ;                                       !- Number of Times Runperiod to be Repeated

OS:ZoneAirContaminantBalance,
  {74c27b67-a652-485b-b0d9-8c8746a4cc94}, !- Handle
  Yes,                                    !- Carbon Dioxide Concentration
  {d9676409-28b4-45b5-8099-413f2ec355fa}; !- Outdoor Carbon Dioxide Schedule Name

OS:Schedule:Constant,
  {d9676409-28b4-45b5-8099-413f2ec355fa}, !- Handle
  Наружный_CO2_400ppm,            !- Name
  {6cf1de70-075d-42f0-a393-e147cb3866c8}, !- Schedule Type Limits Name
  400;                                    !- Value

OS:ScheduleTypeLimits,
  {6cf1de70-075d-42f0-a393-e147cb3866c8}, !- Handle
  Dimensionless,                          !- Name
  0,                                      !- Lower Limit Value
  ,                                       !- Upper Limit Value
  Continuous;                             !- Numeric Type

OS:Material,
  {016fc5cd-3770-477a-9446-d27ee6dfa273}, !- Handle
  Штукатурка_20мм,            !- Name
  Smooth,                                 !- Roughness
  0.02,                                   !- Thickness {m}
  0.7,                                    !- Conductivity {W/m-K}
  1600,                                   !- Density {kg/m3}
  840,                                    !- Specific Heat {J/kg-K}
  0.9,                                    !- Thermal Absorptance
  0.7;                                    !- Solar Absorptance

OS:Material,
  {8f95afb0-cf22-4b57-b1cf-ae6643278bec}, !- Handle
  Бетон_500мм,                     !- Name
  Smooth,                                 !- Roughness
  0.5,                                    !- Thickness {m}
  1.74,                                   !- Conductivity {W/m-K}
  2200,                                   !- Density {kg/m3}
  840,                                    !- Specific Heat {J/kg-K}
  0.9,                                    !- Thermal Absorptance
  0.7;                                    !- Solar Absorptance

OS:Material,
  {6a06a58d-0020-4b80-bc12-a3ed86356fcf}, !- Handle
  МинВата_100мм,                 !- Name
  Smooth,                                 !- Roughness
  0.1,                                    !- Thickness {m}
  0.042,                                  !- Conductivity {W/m-K}
  80,                                     !- Density {kg/m3}
  840,                                    !- Specific Heat {J/kg-K}
  0.9,                                    !- Thermal Absorptance
  0.7;                                    !- Solar Absorptance

OS:Material,
  {4df84e62-4531-4130-82ad-2ee487a60358}, !- Handle
  МинВата_150мм,                 !- Name
  Smooth,                                 !- Roughness
  0.15,                                   !- Thickness {m}
  0.042,                                  !- Conductivity {W/m-K}
  80,                                     !- Density {kg/m3}
  840,                                    !- Specific Heat {J/kg-K}
  0.9,                                    !- Thermal Absorptance
  0.7;                                    !- Solar Absorptance

OS:Material,
  {73a638f1-d69d-498d-8ad8-f40ba83603ba}, !- Handle
  ЖБ_плита_220мм,                !- Name
  Smooth,                                 !- Roughness
  0.22,                                   !- Thickness {m}
  1.74,                                   !- Conductivity {W/m-K}
  2500,                                   !- Density {kg/m3}
  840,                                    !- Specific Heat {J/kg-K}
  0.9,                                    !- Thermal Absorptance
  0.7;                                    !- Solar Absorptance

OS:Material,
  {22df3e45-75f6-4774-8a49-379fd925e8d4}, !- Handle
  Стяжка_100мм,                   !- Name
  Smooth,                                 !- Roughness
  0.1,                                    !- Thickness {m}
  0.93,                                   !- Conductivity {W/m-K}
  1800,                                   !- Density {kg/m3}
  840,                                    !- Specific Heat {J/kg-K}
  0.9,                                    !- Thermal Absorptance
  0.7;                                    !- Solar Absorptance

OS:Construction,
  {3f79fc35-550c-41e3-b6a9-9bd60f78163f}, !- Handle
  Стена_наружная,            !- Name
  ,                                       !- Surface Rendering Name
  {016fc5cd-3770-477a-9446-d27ee6dfa273}, !- Layer 1
  {8f95afb0-cf22-4b57-b1cf-ae6643278bec}, !- Layer 2
  {6a06a58d-0020-4b80-bc12-a3ed86356fcf}, !- Layer 3
  {016fc5cd-3770-477a-9446-d27ee6dfa273}; !- Layer 4

OS:Construction,
  {d5936d65-3e8c-4a56-ba0b-e50342f7ab99}, !- Handle
  Стена_внутренняя,        !- Name
  ,                                       !- Surface Rendering Name
  {016fc5cd-3770-477a-9446-d27ee6dfa273}, !- Layer 1
  {8f95afb0-cf22-4b57-b1cf-ae6643278bec}, !- Layer 2
  {016fc5cd-3770-477a-9446-d27ee6dfa273}; !- Layer 3

OS:Construction,
  {494baabe-71bd-4c54-8e12-59883808b3c8}, !- Handle
  Покрытие_зала,              !- Name
  ,                                       !- Surface Rendering Name
  {4df84e62-4531-4130-82ad-2ee487a60358}, !- Layer 1
  {73a638f1-d69d-498d-8ad8-f40ba83603ba}; !- Layer 2

OS:Construction,
  {d71a17ce-970e-43a7-b1de-6e1a4d150843}, !- Handle
  Пол_зала,                        !- Name
  ,                                       !- Surface Rendering Name
  {22df3e45-75f6-4774-8a49-379fd925e8d4}, !- Layer 1
  {73a638f1-d69d-498d-8ad8-f40ba83603ba}; !- Layer 2

OS:ThermalZone,
  {7be1299a-af9a-4eac-8614-2a60f5e0e34e}, !- Handle
  Кинозал_135мест_DCV_Rec,     !- Name
  ,                                       !- Multiplier
  ,                                       !- Ceiling Height {m}
  ,                                       !- Volume {m3}
  ,                                       !- Floor Area {m2}
  ,                                       !- Zone Inside Convection Algorithm
  ,                                       !- Zone Outside Convection Algorithm
  ,                                       !- Zone Conditioning Equipment List Name
  {caa59060-ea8a-4e17-af25-d5356657acef}, !- Zone Air Inlet Port List
  {e5bae9b9-5eba-4774-aad2-2de7e2c25a9f}, !- Zone Air Exhaust Port List
  {6da64d9a-58f0-4b89-8baa-68f11ca74f78}, !- Zone Air Node Name
  {5a64671f-459e-461e-bc2e-d174a6b3c3b3}, !- Zone Return Air Port List
  ,                                       !- Primary Daylighting Control Name
  ,                                       !- Fraction of Zone Controlled by Primary Daylighting Control
  ,                                       !- Secondary Daylighting Control Name
  ,                                       !- Fraction of Zone Controlled by Secondary Daylighting Control
  ,                                       !- Illuminance Map Name
  ,                                       !- Group Rendering Name
  {56b77e97-1512-4bf7-a4ea-afd0df26fa7b}, !- Thermostat Name
  No;                                     !- Use Ideal Air Loads

OS:Node,
  {1ecdc78a-e308-403a-a721-3d5cade81ea2}, !- Handle
  Node 1,                                 !- Name
  {6da64d9a-58f0-4b89-8baa-68f11ca74f78}, !- Inlet Port
  ;                                       !- Outlet Port

OS:Connection,
  {6da64d9a-58f0-4b89-8baa-68f11ca74f78}, !- Handle
  {7be1299a-af9a-4eac-8614-2a60f5e0e34e}, !- Source Object
  11,                                     !- Outlet Port
  {1ecdc78a-e308-403a-a721-3d5cade81ea2}, !- Target Object
  2;                                      !- Inlet Port

OS:PortList,
  {caa59060-ea8a-4e17-af25-d5356657acef}, !- Handle
  {7be1299a-af9a-4eac-8614-2a60f5e0e34e}, !- HVAC Component
  {34a4ecba-b014-4d91-921d-e54a8fbdaed1}; !- Port 1

OS:PortList,
  {e5bae9b9-5eba-4774-aad2-2de7e2c25a9f}, !- Handle
  {7be1299a-af9a-4eac-8614-2a60f5e0e34e}; !- HVAC Component

OS:PortList,
  {5a64671f-459e-461e-bc2e-d174a6b3c3b3}, !- Handle
  {7be1299a-af9a-4eac-8614-2a60f5e0e34e}, !- HVAC Component
  {e95db516-5517-402e-9a05-894dde5e8385}; !- Port 1

OS:Sizing:Zone,
  {7405a30f-f052-4310-a498-56cc7e184938}, !- Handle
  {7be1299a-af9a-4eac-8614-2a60f5e0e34e}, !- Zone or ZoneList Name
  SupplyAirTemperature,                   !- Zone Cooling Design Supply Air Temperature Input Method
  14,                                     !- Zone Cooling Design Supply Air Temperature {C}
  11.11,                                  !- Zone Cooling Design Supply Air Temperature Difference {deltaC}
  SupplyAirTemperature,                   !- Zone Heating Design Supply Air Temperature Input Method
  40,                                     !- Zone Heating Design Supply Air Temperature {C}
  11.11,                                  !- Zone Heating Design Supply Air Temperature Difference {deltaC}
  0.0085,                                 !- Zone Cooling Design Supply Air Humidity Ratio {kg-H2O/kg-air}
  0.008,                                  !- Zone Heating Design Supply Air Humidity Ratio {kg-H2O/kg-air}
  ,                                       !- Zone Heating Sizing Factor
  ,                                       !- Zone Cooling Sizing Factor
  DesignDay,                              !- Cooling Design Air Flow Method
  ,                                       !- Cooling Design Air Flow Rate {m3/s}
  ,                                       !- Cooling Minimum Air Flow per Zone Floor Area {m3/s-m2}
  ,                                       !- Cooling Minimum Air Flow {m3/s}
  ,                                       !- Cooling Minimum Air Flow Fraction
  DesignDay,                              !- Heating Design Air Flow Method
  ,                                       !- Heating Design Air Flow Rate {m3/s}
  ,                                       !- Heating Maximum Air Flow per Zone Floor Area {m3/s-m2}
  ,                                       !- Heating Maximum Air Flow {m3/s}
  ,                                       !- Heating Maximum Air Flow Fraction
  No,                                     !- Account for Dedicated Outdoor Air System
  NeutralSupplyAir,                       !- Dedicated Outdoor Air System Control Strategy
  autosize,                               !- Dedicated Outdoor Air Low Setpoint Temperature for Design {C}
  autosize,                               !- Dedicated Outdoor Air High Setpoint Temperature for Design {C}
  Sensible Load Only No Latent Load,      !- Zone Load Sizing Method
  HumidityRatioDifference,                !- Zone Latent Cooling Design Supply Air Humidity Ratio Input Method
  ,                                       !- Zone Dehumidification Design Supply Air Humidity Ratio {kgWater/kgDryAir}
  0.005,                                  !- Zone Cooling Design Supply Air Humidity Ratio Difference {kgWater/kgDryAir}
  HumidityRatioDifference,                !- Zone Latent Heating Design Supply Air Humidity Ratio Input Method
  ,                                       !- Zone Humidification Design Supply Air Humidity Ratio {kgWater/kgDryAir}
  0.005,                                  !- Zone Humidification Design Supply Air Humidity Ratio Difference {kgWater/kgDryAir}
  ,                                       !- Zone Humidistat Dehumidification Set Point Schedule Name
  ,                                       !- Zone Humidistat Humidification Set Point Schedule Name
  ,                                       !- Design Zone Air Distribution Effectiveness in Cooling Mode
  ,                                       !- Design Zone Air Distribution Effectiveness in Heating Mode
  ,                                       !- Design Zone Secondary Recirculation Fraction {dimensionless}
  ,                                       !- Design Minimum Zone Ventilation Efficiency {dimensionless}
  Coincident;                             !- Sizing Option

OS:ZoneHVAC:EquipmentList,
  {ad2c6782-7a0f-47b6-b8c3-289d823bf75a}, !- Handle
  Zone HVAC Equipment List 1,             !- Name
  {7be1299a-af9a-4eac-8614-2a60f5e0e34e}, !- Thermal Zone
  ,                                       !- Load Distribution Scheme
  {0f22b917-a039-413d-9e23-54a07ea6eb97}, !- Zone Equipment 1
  1,                                      !- Zone Equipment Cooling Sequence 1
  1,                                      !- Zone Equipment Heating or No-Load Sequence 1
  ,                                       !- Zone Equipment Sequential Cooling Fraction Schedule Name 1
  ;                                       !- Zone Equipment Sequential Heating Fraction Schedule Name 1

OS:Space,
  {2b5861e7-37e8-4799-996b-032e26da97a9}, !- Handle
  Зал_DCV_Rec,                         !- Name
  ,                                       !- Space Type Name
  ,                                       !- Default Construction Set Name
  ,                                       !- Default Schedule Set Name
  ,                                       !- Direction of Relative North {deg}
  ,                                       !- X Origin {m}
  ,                                       !- Y Origin {m}
  ,                                       !- Z Origin {m}
  ,                                       !- Building Story Name
  {7be1299a-af9a-4eac-8614-2a60f5e0e34e}, !- Thermal Zone Name
  ,                                       !- Part of Total Floor Area
  {5886a3f3-2e76-4886-96b9-70b1d808d23c}; !- Design Specification Outdoor Air Object Name

OS:Surface,
  {57683d19-ed3b-420b-8f09-8b0a9ac1a13a}, !- Handle
  Пол,                                 !- Name
  Floor,                                  !- Surface Type
  {d71a17ce-970e-43a7-b1de-6e1a4d150843}, !- Construction Name
  {2b5861e7-37e8-4799-996b-032e26da97a9}, !- Space Name
  Ground,                                 !- Outside Boundary Condition
  ,                                       !- Outside Boundary Condition Object
  NoSun,                                  !- Sun Exposure
  NoWind,                                 !- Wind Exposure
  ,                                       !- View Factor to Ground
  ,                                       !- Number of Vertices
  0, 0, 0,                                !- X,Y,Z Vertex 1 {m}
  0, 8.48, 0,                             !- X,Y,Z Vertex 2 {m}
  15.68, 8.48, 0,                         !- X,Y,Z Vertex 3 {m}
  15.68, 0, 0;                            !- X,Y,Z Vertex 4 {m}

OS:Surface,
  {92ea1807-4121-48f0-8bac-773b6fecac39}, !- Handle
  Потолок,                         !- Name
  RoofCeiling,                            !- Surface Type
  {494baabe-71bd-4c54-8e12-59883808b3c8}, !- Construction Name
  {2b5861e7-37e8-4799-996b-032e26da97a9}, !- Space Name
  Outdoors,                               !- Outside Boundary Condition
  ,                                       !- Outside Boundary Condition Object
  NoSun,                                  !- Sun Exposure
  NoWind,                                 !- Wind Exposure
  ,                                       !- View Factor to Ground
  ,                                       !- Number of Vertices
  0, 0, 4.85,                             !- X,Y,Z Vertex 1 {m}
  15.68, 0, 4.85,                         !- X,Y,Z Vertex 2 {m}
  15.68, 8.48, 4.85,                      !- X,Y,Z Vertex 3 {m}
  0, 8.48, 4.85;                          !- X,Y,Z Vertex 4 {m}

OS:Surface,
  {2739fba6-c651-4ca2-9d98-fa375bd66130}, !- Handle
  Стена_Ю,                          !- Name
  Wall,                                   !- Surface Type
  {3f79fc35-550c-41e3-b6a9-9bd60f78163f}, !- Construction Name
  {2b5861e7-37e8-4799-996b-032e26da97a9}, !- Space Name
  Outdoors,                               !- Outside Boundary Condition
  ,                                       !- Outside Boundary Condition Object
  SunExposed,                             !- Sun Exposure
  WindExposed,                            !- Wind Exposure
  ,                                       !- View Factor to Ground
  ,                                       !- Number of Vertices
  15.68, 0, 0,                            !- X,Y,Z Vertex 1 {m}
  15.68, 0, 4.85,                         !- X,Y,Z Vertex 2 {m}
  0, 0, 4.85,                             !- X,Y,Z Vertex 3 {m}
  0, 0, 0;                                !- X,Y,Z Vertex 4 {m}

OS:Surface,
  {727897c7-32b6-4708-8eb3-031a9f97de8c}, !- Handle
  Стена_С,                          !- Name
  Wall,                                   !- Surface Type
  {3f79fc35-550c-41e3-b6a9-9bd60f78163f}, !- Construction Name
  {2b5861e7-37e8-4799-996b-032e26da97a9}, !- Space Name
  Outdoors,                               !- Outside Boundary Condition
  ,                                       !- Outside Boundary Condition Object
  SunExposed,                             !- Sun Exposure
  WindExposed,                            !- Wind Exposure
  ,                                       !- View Factor to Ground
  ,                                       !- Number of Vertices
  0, 8.48, 0,                             !- X,Y,Z Vertex 1 {m}
  0, 8.48, 4.85,                          !- X,Y,Z Vertex 2 {m}
  15.68, 8.48, 4.85,                      !- X,Y,Z Vertex 3 {m}
  15.68, 8.48, 0;                         !- X,Y,Z Vertex 4 {m}

OS:Surface,
  {62247153-3b07-42ee-8f80-013bdc67fb4a}, !- Handle
  Стена_З,                          !- Name
  Wall,                                   !- Surface Type
  {d5936d65-3e8c-4a56-ba0b-e50342f7ab99}, !- Construction Name
  {2b5861e7-37e8-4799-996b-032e26da97a9}, !- Space Name
  Outdoors,                               !- Outside Boundary Condition
  ,                                       !- Outside Boundary Condition Object
  SunExposed,                             !- Sun Exposure
  WindExposed,                            !- Wind Exposure
  ,                                       !- View Factor to Ground
  ,                                       !- Number of Vertices
  0, 0, 0,                                !- X,Y,Z Vertex 1 {m}
  0, 0, 4.85,                             !- X,Y,Z Vertex 2 {m}
  0, 8.48, 4.85,                          !- X,Y,Z Vertex 3 {m}
  0, 8.48, 0;                             !- X,Y,Z Vertex 4 {m}

OS:Surface,
  {71ddfa16-e6a7-4e36-b05c-977ab1ab1716}, !- Handle
  Стена_В,                          !- Name
  Wall,                                   !- Surface Type
  {d5936d65-3e8c-4a56-ba0b-e50342f7ab99}, !- Construction Name
  {2b5861e7-37e8-4799-996b-032e26da97a9}, !- Space Name
  Outdoors,                               !- Outside Boundary Condition
  ,                                       !- Outside Boundary Condition Object
  SunExposed,                             !- Sun Exposure
  WindExposed,                            !- Wind Exposure
  ,                                       !- View Factor to Ground
  ,                                       !- Number of Vertices
  15.68, 8.48, 0,                         !- X,Y,Z Vertex 1 {m}
  15.68, 8.48, 4.85,                      !- X,Y,Z Vertex 2 {m}
  15.68, 0, 4.85,                         !- X,Y,Z Vertex 3 {m}
  15.68, 0, 0;                            !- X,Y,Z Vertex 4 {m}

OS:ScheduleTypeLimits,
  {dc100436-20bb-4981-900c-2e1f54e5136d}, !- Handle
  Заполняемость_DCV_Rec_Limits, !- Name
  0,                                      !- Lower Limit Value
  1,                                      !- Upper Limit Value
  Continuous,                             !- Numeric Type
  Dimensionless;                          !- Unit Type

OS:Schedule:Ruleset,
  {1ccdaa9f-13a1-467c-b76c-cdf0deb7937c}, !- Handle
  Заполняемость_DCV_Rec,     !- Name
  {dc100436-20bb-4981-900c-2e1f54e5136d}, !- Schedule Type Limits Name
  {48164042-6094-452e-97bf-624cffcab989}; !- Default Day Schedule Name

OS:Schedule:Day,
  {48164042-6094-452e-97bf-624cffcab989}, !- Handle
  Schedule Day 1,                         !- Name
  {dc100436-20bb-4981-900c-2e1f54e5136d}, !- Schedule Type Limits Name
  ,                                       !- Interpolate to Timestep
  1,                                      !- Hour 1
  0,                                      !- Minute 1
  0,                                      !- Value Until Time 1
  2,                                      !- Hour 2
  0,                                      !- Minute 2
  0,                                      !- Value Until Time 2
  3,                                      !- Hour 3
  0,                                      !- Minute 3
  0,                                      !- Value Until Time 3
  4,                                      !- Hour 4
  0,                                      !- Minute 4
  0,                                      !- Value Until Time 4
  5,                                      !- Hour 5
  0,                                      !- Minute 5
  0,                                      !- Value Until Time 5
  6,                                      !- Hour 6
  0,                                      !- Minute 6
  0,                                      !- Value Until Time 6
  7,                                      !- Hour 7
  0,                                      !- Minute 7
  0,                                      !- Value Until Time 7
  8,                                      !- Hour 8
  0,                                      !- Minute 8
  0,                                      !- Value Until Time 8
  9,                                      !- Hour 9
  0,                                      !- Minute 9
  0.1,                                    !- Value Until Time 9
  10,                                     !- Hour 10
  0,                                      !- Minute 10
  0.1,                                    !- Value Until Time 10
  11,                                     !- Hour 11
  0,                                      !- Minute 11
  0.2,                                    !- Value Until Time 11
  12,                                     !- Hour 12
  0,                                      !- Minute 12
  0.85,                                   !- Value Until Time 12
  13,                                     !- Hour 13
  0,                                      !- Minute 13
  0.85,                                   !- Value Until Time 13
  14,                                     !- Hour 14
  0,                                      !- Minute 14
  0.85,                                   !- Value Until Time 14
  15,                                     !- Hour 15
  0,                                      !- Minute 15
  0.85,                                   !- Value Until Time 15
  16,                                     !- Hour 16
  0,                                      !- Minute 16
  0.15,                                   !- Value Until Time 16
  17,                                     !- Hour 17
  0,                                      !- Minute 17
  0.8,                                    !- Value Until Time 17
  18,                                     !- Hour 18
  0,                                      !- Minute 18
  0.8,                                    !- Value Until Time 18
  19,                                     !- Hour 19
  0,                                      !- Minute 19
  0.15,                                   !- Value Until Time 19
  20,                                     !- Hour 20
  0,                                      !- Minute 20
  0.92,                                   !- Value Until Time 20
  21,                                     !- Hour 21
  0,                                      !- Minute 21
  0.92,                                   !- Value Until Time 21
  22,                                     !- Hour 22
  0,                                      !- Minute 22
  0.2,                                    !- Value Until Time 22
  23,                                     !- Hour 23
  0,                                      !- Minute 23
  0.82,                                   !- Value Until Time 23
  24,                                     !- Hour 24
  0,                                      !- Minute 24
  0.82;                                   !- Value Until Time 24

OS:Schedule:Rule,
  {188e9839-5f94-41a2-bc50-4b4802987977}, !- Handle
  Schedule Rule 1,                        !- Name
  {1ccdaa9f-13a1-467c-b76c-cdf0deb7937c}, !- Schedule Ruleset Name
  0,                                      !- Rule Order
  {22a2fb39-dc53-4bdc-9eba-8c562045d9ae}, !- Day Schedule Name
  Yes,                                    !- Apply Sunday
  ,                                       !- Apply Monday
  ,                                       !- Apply Tuesday
  ,                                       !- Apply Wednesday
  ,                                       !- Apply Thursday
  ,                                       !- Apply Friday
  Yes;                                    !- Apply Saturday

OS:Schedule:Day,
  {22a2fb39-dc53-4bdc-9eba-8c562045d9ae}, !- Handle
  Schedule Day 2,                         !- Name
  {dc100436-20bb-4981-900c-2e1f54e5136d}, !- Schedule Type Limits Name
  ,                                       !- Interpolate to Timestep
  1,                                      !- Hour 1
  0,                                      !- Minute 1
  0,                                      !- Value Until Time 1
  2,                                      !- Hour 2
  0,                                      !- Minute 2
  0,                                      !- Value Until Time 2
  3,                                      !- Hour 3
  0,                                      !- Minute 3
  0,                                      !- Value Until Time 3
  4,                                      !- Hour 4
  0,                                      !- Minute 4
  0,                                      !- Value Until Time 4
  5,                                      !- Hour 5
  0,                                      !- Minute 5
  0,                                      !- Value Until Time 5
  6,                                      !- Hour 6
  0,                                      !- Minute 6
  0,                                      !- Value Until Time 6
  7,                                      !- Hour 7
  0,                                      !- Minute 7
  0,                                      !- Value Until Time 7
  8,                                      !- Hour 8
  0,                                      !- Minute 8
  0,                                      !- Value Until Time 8
  9,                                      !- Hour 9
  0,                                      !- Minute 9
  0.1,                                    !- Value Until Time 9
  10,                                     !- Hour 10
  0,                                      !- Minute 10
  0.1,                                    !- Value Until Time 10
  11,                                     !- Hour 11
  0,                                      !- Minute 11
  0.88,                                   !- Value Until Time 11
  12,                                     !- Hour 12
  0,                                      !- Minute 12
  0.88,                                   !- Value Until Time 12
  13,                                     !- Hour 13
  0,                                      !- Minute 13
  0.92,                                   !- Value Until Time 13
  14,                                     !- Hour 14
  0,                                      !- Minute 14
  0.92,                                   !- Value Until Time 14
  15,                                     !- Hour 15
  0,                                      !- Minute 15