
OS:Version,
  {5981ade5-d329-477b-b9ba-f1f17fc145b2}, !- Handle
  3.10.0;                                 !- Version Identifier

OS:Site,
  {eb974520-c336-4d6d-9c49-5f073546ce41}, !- Handle
  SPb_Pulkovo,                            !- Name
  59.8,                                   !- Latitude {deg}
  30.26,                                  !- Longitude {deg}
  3,                                      !- Time Zone {hr}
  16,                                     !- Elevation {m}
  ;                                       !- Terrain

OS:WeatherFile,
  {fb7bcd79-fd96-49a7-983c-2d104427bfb5}, !- Handle
  St.Petersburg-Pulkovo.AP,               !- City
  SPE,                                    !- State Province Region
  RUS,                                    !- Country
  SRC-TMYx,                               !- Data Source
  260630,                                 !- WMO Number
  59.8,                                   !- Latitude {deg}
  30.263,                                 !- Longitude {deg}
  3,                                      !- Time Zone {hr}
  24.1,                                   !- Elevation {m}
  /Users/m/Documents/Openstudio/weather/Saint-Petersburg.epw, !- Url
  C1F27A3E,                               !- Checksum
  ,                                       !- Start Date Actual Year
  Sunday;                                 !- Start Day of Week

OS:SimulationControl,
  {5d732181-f8d2-4e81-ab10-ac5d9fb15c65}, !- Handle
  Yes,                                    !- Do Zone Sizing Calculation
  Yes,                                    !- Do System Sizing Calculation
  Yes,                                    !- Do Plant Sizing Calculation
  Yes,                                    !- Run Simulation for Sizing Periods
  Yes;                                    !- Run Simulation for Weather File Run Periods

OS:RunPeriod,
  {80830416-1077-426d-aefa-0c0a2143a9bc}, !- Handle
  Run Period 1,                           !- Name
  1,                                      !- Begin Month
  1,                                      !- Begin Day of Month
  12,                                     !- End Month
  31,                                     !- End Day of Month
  ,                                       !- Use Weather File Holidays and Special Days
  ,                                       !- Use Weather File Daylight Saving Period
  ,                                       !- Apply Weekend Holiday Rule
  ,                                       !- Use Weather File Rain Indicators
  ,                                       !- Use Weather File Snow Indicators
  ;                                       !- Number of Times Runperiod to be Repeated

OS:ZoneAirContaminantBalance,
  {19411669-a20a-4590-9be8-dec500c0551a}, !- Handle
  Yes,                                    !- Carbon Dioxide Concentration
  {1ee5b363-bb7e-4352-886f-95187453a37f}; !- Outdoor Carbon Dioxide Schedule Name

OS:Schedule:Constant,
  {1ee5b363-bb7e-4352-886f-95187453a37f}, !- Handle
  Наружный_CO2_400ppm,            !- Name
  {1985e179-9bbe-4a0c-b381-6802a8ebaeaa}, !- Schedule Type Limits Name
  400;                                    !- Value

OS:ScheduleTypeLimits,
  {1985e179-9bbe-4a0c-b381-6802a8ebaeaa}, !- Handle
  Dimensionless,                          !- Name
  0,                                      !- Lower Limit Value
  ,                                       !- Upper Limit Value
  Continuous;                             !- Numeric Type

OS:Material,
  {5f1cbbc1-59b1-4092-9836-ab6f53c0b8a5}, !- Handle
  Штукатурка_20мм,            !- Name
  Smooth,                                 !- Roughness
  0.02,                                   !- Thickness {m}
  0.7,                                    !- Conductivity {W/m-K}
  1600,                                   !- Density {kg/m3}
  840,                                    !- Specific Heat {J/kg-K}
  0.9,                                    !- Thermal Absorptance
  0.7;                                    !- Solar Absorptance

OS:Material,
  {5dcfa567-b2e7-42fc-9ce1-3bd18b33a85c}, !- Handle
  Бетон_500мм,                     !- Name
  Smooth,                                 !- Roughness
  0.5,                                    !- Thickness {m}
  1.74,                                   !- Conductivity {W/m-K}
  2200,                                   !- Density {kg/m3}
  840,                                    !- Specific Heat {J/kg-K}
  0.9,                                    !- Thermal Absorptance
  0.7;                                    !- Solar Absorptance

OS:Material,
  {9d555dc3-a390-4ae7-a6b8-30cf671df5dd}, !- Handle
  МинВата_100мм,                 !- Name
  Smooth,                                 !- Roughness
  0.1,                                    !- Thickness {m}
  0.042,                                  !- Conductivity {W/m-K}
  80,                                     !- Density {kg/m3}
  840,                                    !- Specific Heat {J/kg-K}
  0.9,                                    !- Thermal Absorptance
  0.7;                                    !- Solar Absorptance

OS:Material,
  {e07f7b3e-e32b-4238-9399-2254b7e07659}, !- Handle
  МинВата_150мм,                 !- Name
  Smooth,                                 !- Roughness
  0.15,                                   !- Thickness {m}
  0.042,                                  !- Conductivity {W/m-K}
  80,                                     !- Density {kg/m3}
  840,                                    !- Specific Heat {J/kg-K}
  0.9,                                    !- Thermal Absorptance
  0.7;                                    !- Solar Absorptance

OS:Material,
  {16546887-cb25-49c5-b3b5-ba1760218a02}, !- Handle
  ЖБ_плита_220мм,                !- Name
  Smooth,                                 !- Roughness
  0.22,                                   !- Thickness {m}
  1.74,                                   !- Conductivity {W/m-K}
  2500,                                   !- Density {kg/m3}
  840,                                    !- Specific Heat {J/kg-K}
  0.9,                                    !- Thermal Absorptance
  0.7;                                    !- Solar Absorptance

OS:Material,
  {143a1ffc-460a-4402-a678-3c255fb6b78e}, !- Handle
  Стяжка_100мм,                   !- Name
  Smooth,                                 !- Roughness
  0.1,                                    !- Thickness {m}
  0.93,                                   !- Conductivity {W/m-K}
  1800,                                   !- Density {kg/m3}
  840,                                    !- Specific Heat {J/kg-K}
  0.9,                                    !- Thermal Absorptance
  0.7;                                    !- Solar Absorptance

OS:Construction,
  {835ae96f-0d2d-415e-9caa-4621f76f3f24}, !- Handle
  Стена_наружная,            !- Name
  ,                                       !- Surface Rendering Name
  {5f1cbbc1-59b1-4092-9836-ab6f53c0b8a5}, !- Layer 1
  {5dcfa567-b2e7-42fc-9ce1-3bd18b33a85c}, !- Layer 2
  {9d555dc3-a390-4ae7-a6b8-30cf671df5dd}, !- Layer 3
  {5f1cbbc1-59b1-4092-9836-ab6f53c0b8a5}; !- Layer 4

OS:Construction,
  {1133ad72-6366-47ca-8016-303cbcc72721}, !- Handle
  Стена_внутренняя,        !- Name
  ,                                       !- Surface Rendering Name
  {5f1cbbc1-59b1-4092-9836-ab6f53c0b8a5}, !- Layer 1
  {5dcfa567-b2e7-42fc-9ce1-3bd18b33a85c}, !- Layer 2
  {5f1cbbc1-59b1-4092-9836-ab6f53c0b8a5}; !- Layer 3

OS:Construction,
  {98fe31d5-e641-403b-9b28-c00bfcb161a1}, !- Handle
  Покрытие_зала,              !- Name
  ,                                       !- Surface Rendering Name
  {e07f7b3e-e32b-4238-9399-2254b7e07659}, !- Layer 1
  {16546887-cb25-49c5-b3b5-ba1760218a02}; !- Layer 2

OS:Construction,
  {bf67d73d-bddb-40f7-9280-a3fbb04e5e8e}, !- Handle
  Пол_зала,                        !- Name
  ,                                       !- Surface Rendering Name
  {143a1ffc-460a-4402-a678-3c255fb6b78e}, !- Layer 1
  {16546887-cb25-49c5-b3b5-ba1760218a02}; !- Layer 2

OS:ThermalZone,
  {50fc5868-7297-409f-8b77-28315fc23bf6}, !- Handle
  Кинозал_135мест_Base_HP,     !- Name
  ,                                       !- Multiplier
  ,                                       !- Ceiling Height {m}
  ,                                       !- Volume {m3}
  ,                                       !- Floor Area {m2}
  ,                                       !- Zone Inside Convection Algorithm
  ,                                       !- Zone Outside Convection Algorithm
  ,                                       !- Zone Conditioning Equipment List Name
  {b75a755c-8bd1-4d17-9868-ea118ebdf9a0}, !- Zone Air Inlet Port List
  {8bf661db-986b-41a1-90a5-bd1e6f488628}, !- Zone Air Exhaust Port List
  {125baa95-015e-4808-a199-354adfa834e5}, !- Zone Air Node Name
  {177160cf-2bd0-480c-8836-afff3f9de6af}, !- Zone Return Air Port List
  ,                                       !- Primary Daylighting Control Name
  ,                                       !- Fraction of Zone Controlled by Primary Daylighting Control
  ,                                       !- Secondary Daylighting Control Name
  ,                                       !- Fraction of Zone Controlled by Secondary Daylighting Control
  ,                                       !- Illuminance Map Name
  ,                                       !- Group Rendering Name
  {98e4db9c-5cbf-4b44-96b2-95914596c115}, !- Thermostat Name
  No;                                     !- Use Ideal Air Loads

OS:Node,
  {76384942-7809-41cb-b0e0-dfbc6e142f85}, !- Handle
  Node 1,                                 !- Name
  {125baa95-015e-4808-a199-354adfa834e5}, !- Inlet Port
  ;                                       !- Outlet Port

OS:Connection,
  {125baa95-015e-4808-a199-354adfa834e5}, !- Handle
  {50fc5868-7297-409f-8b77-28315fc23bf6}, !- Source Object
  11,                                     !- Outlet Port
  {76384942-7809-41cb-b0e0-dfbc6e142f85}, !- Target Object
  2;                                      !- Inlet Port

OS:PortList,
  {b75a755c-8bd1-4d17-9868-ea118ebdf9a0}, !- Handle
  {50fc5868-7297-409f-8b77-28315fc23bf6}, !- HVAC Component
  {3ac57111-3c7f-4c8c-8429-38accc09fb0b}; !- Port 1

OS:PortList,
  {8bf661db-986b-41a1-90a5-bd1e6f488628}, !- Handle
  {50fc5868-7297-409f-8b77-28315fc23bf6}; !- HVAC Component

OS:PortList,
  {177160cf-2bd0-480c-8836-afff3f9de6af}, !- Handle
  {50fc5868-7297-409f-8b77-28315fc23bf6}, !- HVAC Component
  {b4ba8c65-55b5-4abc-b4b7-00157f9a7672}; !- Port 1

OS:Sizing:Zone,
  {a0600699-9f1e-40c9-b14e-a7b7864270fb}, !- Handle
  {50fc5868-7297-409f-8b77-28315fc23bf6}, !- Zone or ZoneList Name
  SupplyAirTemperature,                   !- Zone Cooling Design Supply Air Temperature Input Method
  14,                                     !- Zone Cooling Design Supply Air Temperature {C}
  11.11,                                  !- Zone Cooling Design Supply Air Temperature Difference {deltaC}
  SupplyAirTemperature,                   !- Zone Heating Design Supply Air Temperature Input Method
  40,                                     !- Zone Heating Design Supply Air Temperature {C}
  11.11,                                  !- Zone Heating Design Supply Air Temperature Difference {deltaC}
  0.0085,                                 !- Zone Cooling Design Supply Air Humidity Ratio {kg-H2O/kg-air}
  0.008,                                  !- Zone Heating Design Supply Air Humidity Ratio {kg-H2O/kg-air}
  ,                                       !- Zone Heating Sizing Factor
  ,                                       !- Zone Cooling Sizing Factor
  DesignDay,                              !- Cooling Design Air Flow Method
  ,                                       !- Cooling Design Air Flow Rate {m3/s}
  ,                                       !- Cooling Minimum Air Flow per Zone Floor Area {m3/s-m2}
  ,                                       !- Cooling Minimum Air Flow {m3/s}
  ,                                       !- Cooling Minimum Air Flow Fraction
  DesignDay,                              !- Heating Design Air Flow Method
  ,                                       !- Heating Design Air Flow Rate {m3/s}
  ,                                       !- Heating Maximum Air Flow per Zone Floor Area {m3/s-m2}
  ,                                       !- Heating Maximum Air Flow {m3/s}
  ,                                       !- Heating Maximum Air Flow Fraction
  No,                                     !- Account for Dedicated Outdoor Air System
  NeutralSupplyAir,                       !- Dedicated Outdoor Air System Control Strategy
  autosize,                               !- Dedicated Outdoor Air Low Setpoint Temperature for Design {C}
  autosize,                               !- Dedicated Outdoor Air High Setpoint Temperature for Design {C}
  Sensible Load Only No Latent Load,      !- Zone Load Sizing Method
  HumidityRatioDifference,                !- Zone Latent Cooling Design Supply Air Humidity Ratio Input Method
  ,                                       !- Zone Dehumidification Design Supply Air Humidity Ratio {kgWater/kgDryAir}
  0.005,                                  !- Zone Cooling Design Supply Air Humidity Ratio Difference {kgWater/kgDryAir}
  HumidityRatioDifference,                !- Zone Latent Heating Design Supply Air Humidity Ratio Input Method
  ,                                       !- Zone Humidification Design Supply Air Humidity Ratio {kgWater/kgDryAir}
  0.005,                                  !- Zone Humidification Design Supply Air Humidity Ratio Difference {kgWater/kgDryAir}
  ,                                       !- Zone Humidistat Dehumidification Set Point Schedule Name
  ,                                       !- Zone Humidistat Humidification Set Point Schedule Name
  ,                                       !- Design Zone Air Distribution Effectiveness in Cooling Mode
  ,                                       !- Design Zone Air Distribution Effectiveness in Heating Mode
  ,                                       !- Design Zone Secondary Recirculation Fraction {dimensionless}
  ,                                       !- Design Minimum Zone Ventilation Efficiency {dimensionless}
  Coincident;                             !- Sizing Option

OS:ZoneHVAC:EquipmentList,
  {9eee16c7-473a-41e1-838e-653fd58b44c5}, !- Handle
  Zone HVAC Equipment List 1,             !- Name
  {50fc5868-7297-409f-8b77-28315fc23bf6}, !- Thermal Zone
  ,                                       !- Load Distribution Scheme
  {6a59b5b9-fc64-47e1-a1a4-b99053b25d2c}, !- Zone Equipment 1
  1,                                      !- Zone Equipment Cooling Sequence 1
  1,                                      !- Zone Equipment Heating or No-Load Sequence 1
  ,                                       !- Zone Equipment Sequential Cooling Fraction Schedule Name 1
  ;                                       !- Zone Equipment Sequential Heating Fraction Schedule Name 1

OS:Space,
  {2ce5e746-6c0c-4d72-ae06-9eefdab2298f}, !- Handle
  Зал_Base_HP,                         !- Name
  ,                                       !- Space Type Name
  ,                                       !- Default Construction Set Name
  ,                                       !- Default Schedule Set Name
  ,                                       !- Direction of Relative North {deg}
  ,                                       !- X Origin {m}
  ,                                       !- Y Origin {m}
  ,                                       !- Z Origin {m}
  ,                                       !- Building Story Name
  {50fc5868-7297-409f-8b77-28315fc23bf6}, !- Thermal Zone Name
  ,                                       !- Part of Total Floor Area
  {7c083006-58ee-4ee5-8931-b81a8990316c}; !- Design Specification Outdoor Air Object Name

OS:Surface,
  {69207722-2682-44f3-88d3-7f6b93caa8d3}, !- Handle
  Пол,                                 !- Name
  Floor,                                  !- Surface Type
  {bf67d73d-bddb-40f7-9280-a3fbb04e5e8e}, !- Construction Name
  {2ce5e746-6c0c-4d72-ae06-9eefdab2298f}, !- Space Name
  Ground,                                 !- Outside Boundary Condition
  ,                                       !- Outside Boundary Condition Object
  NoSun,                                  !- Sun Exposure
  NoWind,                                 !- Wind Exposure
  ,                                       !- View Factor to Ground
  ,                                       !- Number of Vertices
  0, 0, 0,                                !- X,Y,Z Vertex 1 {m}
  0, 8.48, 0,                             !- X,Y,Z Vertex 2 {m}
  15.68, 8.48, 0,                         !- X,Y,Z Vertex 3 {m}
  15.68, 0, 0;                            !- X,Y,Z Vertex 4 {m}

OS:Surface,
  {1e28b9df-09e2-4d47-8067-52630b852858}, !- Handle
  Потолок,                         !- Name
  RoofCeiling,                            !- Surface Type
  {98fe31d5-e641-403b-9b28-c00bfcb161a1}, !- Construction Name
  {2ce5e746-6c0c-4d72-ae06-9eefdab2298f}, !- Space Name
  Outdoors,                               !- Outside Boundary Condition
  ,                                       !- Outside Boundary Condition Object
  NoSun,                                  !- Sun Exposure
  NoWind,                                 !- Wind Exposure
  ,                                       !- View Factor to Ground
  ,                                       !- Number of Vertices
  0, 0, 4.85,                             !- X,Y,Z Vertex 1 {m}
  15.68, 0, 4.85,                         !- X,Y,Z Vertex 2 {m}
  15.68, 8.48, 4.85,                      !- X,Y,Z Vertex 3 {m}
  0, 8.48, 4.85;                          !- X,Y,Z Vertex 4 {m}

OS:Surface,
  {f3712eca-427a-4d26-936d-0b8e9b14a183}, !- Handle
  Стена_Ю,                          !- Name
  Wall,                                   !- Surface Type
  {835ae96f-0d2d-415e-9caa-4621f76f3f24}, !- Construction Name
  {2ce5e746-6c0c-4d72-ae06-9eefdab2298f}, !- Space Name
  Outdoors,                               !- Outside Boundary Condition
  ,                                       !- Outside Boundary Condition Object
  SunExposed,                             !- Sun Exposure
  WindExposed,                            !- Wind Exposure
  ,                                       !- View Factor to Ground
  ,                                       !- Number of Vertices
  15.68, 0, 0,                            !- X,Y,Z Vertex 1 {m}
  15.68, 0, 4.85,                         !- X,Y,Z Vertex 2 {m}
  0, 0, 4.85,                             !- X,Y,Z Vertex 3 {m}
  0, 0, 0;                                !- X,Y,Z Vertex 4 {m}

OS:Surface,
  {da849f49-004c-457a-91aa-f6bcef12dce2}, !- Handle
  Стена_С,                          !- Name
  Wall,                                   !- Surface Type
  {835ae96f-0d2d-415e-9caa-4621f76f3f24}, !- Construction Name
  {2ce5e746-6c0c-4d72-ae06-9eefdab2298f}, !- Space Name
  Outdoors,                               !- Outside Boundary Condition
  ,                                       !- Outside Boundary Condition Object
  SunExposed,                             !- Sun Exposure
  WindExposed,                            !- Wind Exposure
  ,                                       !- View Factor to Ground
  ,                                       !- Number of Vertices
  0, 8.48, 0,                             !- X,Y,Z Vertex 1 {m}
  0, 8.48, 4.85,                          !- X,Y,Z Vertex 2 {m}
  15.68, 8.48, 4.85,                      !- X,Y,Z Vertex 3 {m}
  15.68, 8.48, 0;                         !- X,Y,Z Vertex 4 {m}

OS:Surface,
  {a4264edb-63dc-4025-9987-3dc162200b61}, !- Handle
  Стена_З,                          !- Name
  Wall,                                   !- Surface Type
  {1133ad72-6366-47ca-8016-303cbcc72721}, !- Construction Name
  {2ce5e746-6c0c-4d72-ae06-9eefdab2298f}, !- Space Name
  Outdoors,                               !- Outside Boundary Condition
  ,                                       !- Outside Boundary Condition Object
  SunExposed,                             !- Sun Exposure
  WindExposed,                            !- Wind Exposure
  ,                                       !- View Factor to Ground
  ,                                       !- Number of Vertices
  0, 0, 0,                                !- X,Y,Z Vertex 1 {m}
  0, 0, 4.85,                             !- X,Y,Z Vertex 2 {m}
  0, 8.48, 4.85,                          !- X,Y,Z Vertex 3 {m}
  0, 8.48, 0;                             !- X,Y,Z Vertex 4 {m}

OS:Surface,
  {c6c7f545-bf07-4ed6-a720-c5e5e4363373}, !- Handle
  Стена_В,                          !- Name
  Wall,                                   !- Surface Type
  {1133ad72-6366-47ca-8016-303cbcc72721}, !- Construction Name
  {2ce5e746-6c0c-4d72-ae06-9eefdab2298f}, !- Space Name
  Outdoors,                               !- Outside Boundary Condition
  ,                                       !- Outside Boundary Condition Object
  SunExposed,                             !- Sun Exposure
  WindExposed,                            !- Wind Exposure
  ,                                       !- View Factor to Ground
  ,                                       !- Number of Vertices
  15.68, 8.48, 0,                         !- X,Y,Z Vertex 1 {m}
  15.68, 8.48, 4.85,                      !- X,Y,Z Vertex 2 {m}
  15.68, 0, 4.85,                         !- X,Y,Z Vertex 3 {m}
  15.68, 0, 0;                            !- X,Y,Z Vertex 4 {m}

OS:ScheduleTypeLimits,
  {510472ab-79f9-428e-8cfa-6ccfba2bed1e}, !- Handle
  Заполняемость_Base_HP_Limits, !- Name
  0,                                      !- Lower Limit Value
  1,                                      !- Upper Limit Value
  Continuous,                             !- Numeric Type
  Dimensionless;                          !- Unit Type

OS:Schedule:Ruleset,
  {92dfc227-a321-4aee-98c4-e6f3eb8513e8}, !- Handle
  Заполняемость_Base_HP,     !- Name
  {510472ab-79f9-428e-8cfa-6ccfba2bed1e}, !- Schedule Type Limits Name
  {de0ea035-c92a-4803-9c92-03161ee456e5}; !- Default Day Schedule Name

OS:Schedule:Day,
  {de0ea035-c92a-4803-9c92-03161ee456e5}, !- Handle
  Schedule Day 1,                         !- Name
  {510472ab-79f9-428e-8cfa-6ccfba2bed1e}, !- Schedule Type Limits Name
  ,                                       !- Interpolate to Timestep
  1,                                      !- Hour 1
  0,                                      !- Minute 1
  0,                                      !- Value Until Time 1
  2,                                      !- Hour 2
  0,                                      !- Minute 2
  0,                                      !- Value Until Time 2
  3,                                      !- Hour 3
  0,                                      !- Minute 3
  0,                                      !- Value Until Time 3
  4,                                      !- Hour 4
  0,                                      !- Minute 4
  0,                                      !- Value Until Time 4
  5,                                      !- Hour 5
  0,                                      !- Minute 5
  0,                                      !- Value Until Time 5
  6,                                      !- Hour 6
  0,                                      !- Minute 6
  0,                                      !- Value Until Time 6
  7,                                      !- Hour 7
  0,                                      !- Minute 7
  0,                                      !- Value Until Time 7
  8,                                      !- Hour 8
  0,                                      !- Minute 8
  0,                                      !- Value Until Time 8
  9,                                      !- Hour 9
  0,                                      !- Minute 9
  0.1,                                    !- Value Until Time 9
  10,                                     !- Hour 10
  0,                                      !- Minute 10
  0.1,                                    !- Value Until Time 10
  11,                                     !- Hour 11
  0,                                      !- Minute 11
  0.2,                                    !- Value Until Time 11
  12,                                     !- Hour 12
  0,                                      !- Minute 12
  0.85,                                   !- Value Until Time 12
  13,                                     !- Hour 13
  0,                                      !- Minute 13
  0.85,                                   !- Value Until Time 13
  14,                                     !- Hour 14
  0,                                      !- Minute 14
  0.85,                                   !- Value Until Time 14
  15,                                     !- Hour 15
  0,                                      !- Minute 15
  0.85,                                   !- Value Until Time 15
  16,                                     !- Hour 16
  0,                                      !- Minute 16
  0.15,                                   !- Value Until Time 16
  17,                                     !- Hour 17
  0,                                      !- Minute 17
  0.8,                                    !- Value Until Time 17
  18,                                     !- Hour 18
  0,                                      !- Minute 18
  0.8,                                    !- Value Until Time 18
  19,                                     !- Hour 19
  0,                                      !- Minute 19
  0.15,                                   !- Value Until Time 19
  20,                                     !- Hour 20
  0,                                      !- Minute 20
  0.92,                                   !- Value Until Time 20
  21,                                     !- Hour 21
  0,                                      !- Minute 21
  0.92,                                   !- Value Until Time 21
  22,                                     !- Hour 22
  0,                                      !- Minute 22
  0.2,                                    !- Value Until Time 22
  23,                                     !- Hour 23
  0,                                      !- Minute 23
  0.82,                                   !- Value Until Time 23
  24,                                     !- Hour 24
  0,                                      !- Minute 24
  0.82;                                   !- Value Until Time 24

OS:Schedule:Rule,
  {78872ce8-65bf-48f7-aab1-928fddd72916}, !- Handle
  Schedule Rule 1,                        !- Name
  {92dfc227-a321-4aee-98c4-e6f3eb8513e8}, !- Schedule Ruleset Name
  0,                                      !- Rule Order
  {49264c5a-aeb4-4f5d-abce-8c5cb7aa76c7}, !- Day Schedule Name
  Yes,                                    !- Apply Sunday
  ,                                       !- Apply Monday
  ,                                       !- Apply Tuesday
  ,                                       !- Apply Wednesday
  ,                                       !- Apply Thursday
  ,                                       !- Apply Friday
  Yes;                                    !- Apply Saturday

OS:Schedule:Day,
  {49264c5a-aeb4-4f5d-abce-8c5cb7aa76c7}, !- Handle
  Schedule Day 2,                         !- Name
  {510472ab-79f9-428e-8cfa-6ccfba2bed1e}, !- Schedule Type Limits Name
  ,                                       !- Interpolate to Timestep
  1,                                      !- Hour 1
  0,                                      !- Minute 1
  0,                                      !- Value Until Time 1
  2,                                      !- Hour 2
  0,                                      !- Minute 2
  0,                                      !- Value Until Time 2
  3,                                      !- Hour 3
  0,                                      !- Minute 3
  0,                                      !- Value Until Time 3
  4,                                      !- Hour 4
  0,                                      !- Minute 4
  0,                                      !- Value Until Time 4
  5,                                      !- Hour 5
  0,                                      !- Minute 5
  0,                                      !- Value Until Time 5
  6,                                      !- Hour 6
  0,                                      !- Minute 6
  0,                                      !- Value Until Time 6
  7,                                      !- Hour 7
  0,                                      !- Minute 7
  0,                                      !- Value Until Time 7
  8,                                      !- Hour 8
  0,                                      !- Minute 8
  0,                                      !- Value Until Time 8
  9,                                      !- Hour 9
  0,                                      !- Minute 9
  0.1,                                    !- Value Until Time 9
  10,                                     !- Hour 10
  0,                                      !- Minute 10
  0.1,                                    !- Value Until Time 10
  11,                                     !- Hour 11
  0,                                      !- Minute 11
  0.88,                                   !- Value Until Time 11
  12,                                     !- Hour 12
  0,                                      !- Minute 12
  0.88,                                   !- Value Until Time 12
  13,                                     !- Hour 13
  0,                                      !- Minute 13
  0.92,                                   !- Value Until Time 13
  14,                                     !- Hour 14
  0,                                      !- Minute 14
  0.92,                                   !- Value Until Time 14
  15,                                     !- Hour 15
  0,                                      !- Minute 15