
OS:Version,
  {ba724a10-e36a-405d-92b7-def0f5026ea2}, !- Handle
  3.11.0;                                 !- Version Identifier

OS:Site,
  {8c5d50d9-8808-4376-b0ba-9587d80a45ae}, !- Handle
  SPb_Pulkovo,                            !- Name
  59.8,                                   !- Latitude {deg}
  30.26,                                  !- Longitude {deg}
  3,                                      !- Time Zone {hr}
  16,                                     !- Elevation {m}
  ;                                       !- Terrain

OS:WeatherFile,
  {5d18e2a3-da00-43c0-bc5c-ec1d1074f27e}, !- Handle
  St.Petersburg-Pulkovo.AP,               !- City
  SPE,                                    !- State Province Region
  RUS,                                    !- Country
  SRC-TMYx,                               !- Data Source
  260630,                                 !- WMO Number
  59.8,                                   !- Latitude {deg}
  30.263,                                 !- Longitude {deg}
  3,                                      !- Time Zone {hr}
  24.1,                                   !- Elevation {m}
  /Users/m/Documents/Openstudio/weather/Saint-Petersburg.epw, !- Url
  C1F27A3E,                               !- Checksum
  ,                                       !- Start Date Actual Year
  Sunday;                                 !- Start Day of Week

OS:SimulationControl,
  {c983f946-e113-4817-b47b-7bfd5ff3be42}, !- Handle
  Yes,                                    !- Do Zone Sizing Calculation
  Yes,                                    !- Do System Sizing Calculation
  Yes,                                    !- Do Plant Sizing Calculation
  Yes,                                    !- Run Simulation for Sizing Periods
  Yes;                                    !- Run Simulation for Weather File Run Periods

OS:RunPeriod,
  {a5b68cae-4e25-4a76-bb78-56e28d956aad}, !- Handle
  Run Period 1,                           !- Name
  1,                                      !- Begin Month
  1,                                      !- Begin Day of Month
  12,                                     !- End Month
  31,                                     !- End Day of Month
  ,                                       !- Use Weather File Holidays and Special Days
  ,                                       !- Use Weather File Daylight Saving Period
  ,                                       !- Apply Weekend Holiday Rule
  ,                                       !- Use Weather File Rain Indicators
  ,                                       !- Use Weather File Snow Indicators
  ;                                       !- Number of Times Runperiod to be Repeated

OS:ZoneAirContaminantBalance,
  {76e3d419-f100-49f6-ae45-f691b122f420}, !- Handle
  Yes,                                    !- Carbon Dioxide Concentration
  {0b1e0cce-ce88-4dac-893e-7189dc1d01f4}; !- Outdoor Carbon Dioxide Schedule Name

OS:Schedule:Constant,
  {0b1e0cce-ce88-4dac-893e-7189dc1d01f4}, !- Handle
  Наружный_CO2_400ppm,            !- Name
  {96d4b10b-a6d8-438e-850d-b8b42bd585ad}, !- Schedule Type Limits Name
  400;                                    !- Value

OS:ScheduleTypeLimits,
  {96d4b10b-a6d8-438e-850d-b8b42bd585ad}, !- Handle
  Dimensionless,                          !- Name
  0,                                      !- Lower Limit Value
  ,                                       !- Upper Limit Value
  Continuous;                             !- Numeric Type

OS:Material,
  {6e941c41-00d9-4857-a1eb-54a4dc9c2221}, !- Handle
  Штукатурка_20мм,            !- Name
  Smooth,                                 !- Roughness
  0.02,                                   !- Thickness {m}
  0.7,                                    !- Conductivity {W/m-K}
  1600,                                   !- Density {kg/m3}
  840,                                    !- Specific Heat {J/kg-K}
  0.9,                                    !- Thermal Absorptance
  0.7;                                    !- Solar Absorptance

OS:Material,
  {80deaf1e-0ed2-449c-8b86-55f38abadd6f}, !- Handle
  Бетон_500мм,                     !- Name
  Smooth,                                 !- Roughness
  0.5,                                    !- Thickness {m}
  1.74,                                   !- Conductivity {W/m-K}
  2200,                                   !- Density {kg/m3}
  840,                                    !- Specific Heat {J/kg-K}
  0.9,                                    !- Thermal Absorptance
  0.7;                                    !- Solar Absorptance

OS:Material,
  {14af975b-198f-4942-9fff-50ab50266053}, !- Handle
  МинВата_100мм,                 !- Name
  Smooth,                                 !- Roughness
  0.1,                                    !- Thickness {m}
  0.042,                                  !- Conductivity {W/m-K}
  80,                                     !- Density {kg/m3}
  840,                                    !- Specific Heat {J/kg-K}
  0.9,                                    !- Thermal Absorptance
  0.7;                                    !- Solar Absorptance

OS:Material,
  {f2372e1a-90fc-411b-bdc3-8fa1ef9d2466}, !- Handle
  МинВата_150мм,                 !- Name
  Smooth,                                 !- Roughness
  0.15,                                   !- Thickness {m}
  0.042,                                  !- Conductivity {W/m-K}
  80,                                     !- Density {kg/m3}
  840,                                    !- Specific Heat {J/kg-K}
  0.9,                                    !- Thermal Absorptance
  0.7;                                    !- Solar Absorptance

OS:Material,
  {c4a50629-a9da-458d-938d-14b365144a8e}, !- Handle
  ЖБ_плита_220мм,                !- Name
  Smooth,                                 !- Roughness
  0.22,                                   !- Thickness {m}
  1.74,                                   !- Conductivity {W/m-K}
  2500,                                   !- Density {kg/m3}
  840,                                    !- Specific Heat {J/kg-K}
  0.9,                                    !- Thermal Absorptance
  0.7;                                    !- Solar Absorptance

OS:Material,
  {7131436f-735d-44ea-b3e5-464466106f9b}, !- Handle
  Стяжка_100мм,                   !- Name
  Smooth,                                 !- Roughness
  0.1,                                    !- Thickness {m}
  0.93,                                   !- Conductivity {W/m-K}
  1800,                                   !- Density {kg/m3}
  840,                                    !- Specific Heat {J/kg-K}
  0.9,                                    !- Thermal Absorptance
  0.7;                                    !- Solar Absorptance

OS:Construction,
  {8c7f9f93-6d8d-43eb-8ac1-76178194437c}, !- Handle
  Стена_наружная,            !- Name
  ,                                       !- Surface Rendering Name
  {6e941c41-00d9-4857-a1eb-54a4dc9c2221}, !- Layer 1
  {80deaf1e-0ed2-449c-8b86-55f38abadd6f}, !- Layer 2
  {14af975b-198f-4942-9fff-50ab50266053}, !- Layer 3
  {6e941c41-00d9-4857-a1eb-54a4dc9c2221}; !- Layer 4

OS:Construction,
  {80abd91e-1ef4-411b-a14d-f0b00eb019ea}, !- Handle
  Стена_внутренняя,        !- Name
  ,                                       !- Surface Rendering Name
  {6e941c41-00d9-4857-a1eb-54a4dc9c2221}, !- Layer 1
  {80deaf1e-0ed2-449c-8b86-55f38abadd6f}, !- Layer 2
  {6e941c41-00d9-4857-a1eb-54a4dc9c2221}; !- Layer 3

OS:Construction,
  {b094ff09-2683-4fe0-9454-440534fc1f8c}, !- Handle
  Покрытие_зала,              !- Name
  ,                                       !- Surface Rendering Name
  {f2372e1a-90fc-411b-bdc3-8fa1ef9d2466}, !- Layer 1
  {c4a50629-a9da-458d-938d-14b365144a8e}; !- Layer 2

OS:Construction,
  {617503a9-0a81-47a3-92fb-67d8e667c81f}, !- Handle
  Пол_зала,                        !- Name
  ,                                       !- Surface Rendering Name
  {7131436f-735d-44ea-b3e5-464466106f9b}, !- Layer 1
  {c4a50629-a9da-458d-938d-14b365144a8e}; !- Layer 2

OS:ThermalZone,
  {5e5793cf-cead-4549-b671-7218264dcbc9}, !- Handle
  Кинозал_135мест_Base_Rec,    !- Name
  ,                                       !- Multiplier
  ,                                       !- Ceiling Height {m}
  ,                                       !- Volume {m3}
  ,                                       !- Floor Area {m2}
  ,                                       !- Zone Inside Convection Algorithm
  ,                                       !- Zone Outside Convection Algorithm
  ,                                       !- Zone Conditioning Equipment List Name
  {4ace14b9-fc4c-47ef-bbf4-9be68a125fb2}, !- Zone Air Inlet Port List
  {0b2e1e1c-69e7-49f8-a3a2-ca219697560c}, !- Zone Air Exhaust Port List
  {0d81df94-ddad-4dcc-93f0-5ce2a94bf3a4}, !- Zone Air Node Name
  {ec576a50-7d3f-4c07-b97c-56331ac14c61}, !- Zone Return Air Port List
  ,                                       !- Primary Daylighting Control Name
  ,                                       !- Fraction of Zone Controlled by Primary Daylighting Control
  ,                                       !- Secondary Daylighting Control Name
  ,                                       !- Fraction of Zone Controlled by Secondary Daylighting Control
  ,                                       !- Illuminance Map Name
  ,                                       !- Group Rendering Name
  {6a2ead2c-bec6-47e1-9fe5-e17793a6bbf4}, !- Thermostat Name
  No;                                     !- Use Ideal Air Loads

OS:Node,
  {e76bdee5-46a4-4aa0-8a2b-14f3136c33d5}, !- Handle
  Node 1,                                 !- Name
  {0d81df94-ddad-4dcc-93f0-5ce2a94bf3a4}, !- Inlet Port
  ;                                       !- Outlet Port

OS:Connection,
  {0d81df94-ddad-4dcc-93f0-5ce2a94bf3a4}, !- Handle
  {5e5793cf-cead-4549-b671-7218264dcbc9}, !- Source Object
  11,                                     !- Outlet Port
  {e76bdee5-46a4-4aa0-8a2b-14f3136c33d5}, !- Target Object
  2;                                      !- Inlet Port

OS:PortList,
  {4ace14b9-fc4c-47ef-bbf4-9be68a125fb2}, !- Handle
  {5e5793cf-cead-4549-b671-7218264dcbc9}, !- HVAC Component
  {95543654-4bf0-4d49-ac9e-3aad1810c1b3}; !- Port 1

OS:PortList,
  {0b2e1e1c-69e7-49f8-a3a2-ca219697560c}, !- Handle
  {5e5793cf-cead-4549-b671-7218264dcbc9}; !- HVAC Component

OS:PortList,
  {ec576a50-7d3f-4c07-b97c-56331ac14c61}, !- Handle
  {5e5793cf-cead-4549-b671-7218264dcbc9}, !- HVAC Component
  {53a557c9-5db1-4705-9ea6-270eb54a2f68}; !- Port 1

OS:Sizing:Zone,
  {7d556b70-8ed0-4d60-aebe-7bfe7eb0ff30}, !- Handle
  {5e5793cf-cead-4549-b671-7218264dcbc9}, !- Zone or ZoneList Name
  SupplyAirTemperature,                   !- Zone Cooling Design Supply Air Temperature Input Method
  14,                                     !- Zone Cooling Design Supply Air Temperature {C}
  11.11,                                  !- Zone Cooling Design Supply Air Temperature Difference {deltaC}
  SupplyAirTemperature,                   !- Zone Heating Design Supply Air Temperature Input Method
  40,                                     !- Zone Heating Design Supply Air Temperature {C}
  11.11,                                  !- Zone Heating Design Supply Air Temperature Difference {deltaC}
  0.0085,                                 !- Zone Cooling Design Supply Air Humidity Ratio {kg-H2O/kg-air}
  0.008,                                  !- Zone Heating Design Supply Air Humidity Ratio {kg-H2O/kg-air}
  ,                                       !- Zone Heating Sizing Factor
  ,                                       !- Zone Cooling Sizing Factor
  DesignDay,                              !- Cooling Design Air Flow Method
  ,                                       !- Cooling Design Air Flow Rate {m3/s}
  ,                                       !- Cooling Minimum Air Flow per Zone Floor Area {m3/s-m2}
  ,                                       !- Cooling Minimum Air Flow {m3/s}
  ,                                       !- Cooling Minimum Air Flow Fraction
  DesignDay,                              !- Heating Design Air Flow Method
  ,                                       !- Heating Design Air Flow Rate {m3/s}
  ,                                       !- Heating Maximum Air Flow per Zone Floor Area {m3/s-m2}
  ,                                       !- Heating Maximum Air Flow {m3/s}
  ,                                       !- Heating Maximum Air Flow Fraction
  No,                                     !- Account for Dedicated Outdoor Air System
  NeutralSupplyAir,                       !- Dedicated Outdoor Air System Control Strategy
  autosize,                               !- Dedicated Outdoor Air Low Setpoint Temperature for Design {C}
  autosize,                               !- Dedicated Outdoor Air High Setpoint Temperature for Design {C}
  Sensible Load Only No Latent Load,      !- Zone Load Sizing Method
  HumidityRatioDifference,                !- Zone Latent Cooling Design Supply Air Humidity Ratio Input Method
  ,                                       !- Zone Dehumidification Design Supply Air Humidity Ratio {kgWater/kgDryAir}
  0.005,                                  !- Zone Cooling Design Supply Air Humidity Ratio Difference {kgWater/kgDryAir}
  HumidityRatioDifference,                !- Zone Latent Heating Design Supply Air Humidity Ratio Input Method
  ,                                       !- Zone Humidification Design Supply Air Humidity Ratio {kgWater/kgDryAir}
  0.005,                                  !- Zone Humidification Design Supply Air Humidity Ratio Difference {kgWater/kgDryAir}
  ,                                       !- Zone Humidistat Dehumidification Set Point Schedule Name
  ,                                       !- Zone Humidistat Humidification Set Point Schedule Name
  ,                                       !- Design Zone Air Distribution Effectiveness in Cooling Mode
  ,                                       !- Design Zone Air Distribution Effectiveness in Heating Mode
  ,                                       !- Design Zone Secondary Recirculation Fraction {dimensionless}
  ,                                       !- Design Minimum Zone Ventilation Efficiency {dimensionless}
  Coincident,                             !- Sizing Option
  None,                                   !- Heating Coil Sizing Method
  1;                                      !- Maximum Heating Capacity To Cooling Load Sizing Ratio {W/W}

OS:ZoneHVAC:EquipmentList,
  {89c629d5-b664-4b77-afdf-b8127d6081c9}, !- Handle
  Zone HVAC Equipment List 1,             !- Name
  {5e5793cf-cead-4549-b671-7218264dcbc9}, !- Thermal Zone
  ,                                       !- Load Distribution Scheme
  {c3e71838-a412-43f7-b5b6-69e1351ffb89}, !- Zone Equipment 1
  1,                                      !- Zone Equipment Cooling Sequence 1
  1,                                      !- Zone Equipment Heating or No-Load Sequence 1
  ,                                       !- Zone Equipment Sequential Cooling Fraction Schedule Name 1
  ;                                       !- Zone Equipment Sequential Heating Fraction Schedule Name 1

OS:Space,
  {af4fe011-bafb-4daf-82e3-7628a38c88df}, !- Handle
  Зал_Base_Rec,                        !- Name
  ,                                       !- Space Type Name
  ,                                       !- Default Construction Set Name
  ,                                       !- Default Schedule Set Name
  ,                                       !- Direction of Relative North {deg}
  ,                                       !- X Origin {m}
  ,                                       !- Y Origin {m}
  ,                                       !- Z Origin {m}
  ,                                       !- Building Story Name
  {5e5793cf-cead-4549-b671-7218264dcbc9}, !- Thermal Zone Name
  ,                                       !- Part of Total Floor Area
  {99c0af36-d057-469b-b85c-8d1945931676}; !- Design Specification Outdoor Air Object Name

OS:Surface,
  {605bbe85-433f-488c-a664-99ca3811c91e}, !- Handle
  Пол,                                 !- Name
  Floor,                                  !- Surface Type
  {617503a9-0a81-47a3-92fb-67d8e667c81f}, !- Construction Name
  {af4fe011-bafb-4daf-82e3-7628a38c88df}, !- Space Name
  Ground,                                 !- Outside Boundary Condition
  ,                                       !- Outside Boundary Condition Object
  NoSun,                                  !- Sun Exposure
  NoWind,                                 !- Wind Exposure
  ,                                       !- View Factor to Ground
  ,                                       !- Number of Vertices
  0, 0, 0,                                !- X,Y,Z Vertex 1 {m}
  0, 8.48, 0,                             !- X,Y,Z Vertex 2 {m}
  15.68, 8.48, 0,                         !- X,Y,Z Vertex 3 {m}
  15.68, 0, 0;                            !- X,Y,Z Vertex 4 {m}

OS:Surface,
  {0b8b855b-af1c-4ddf-b000-f20e2d321f01}, !- Handle
  Потолок,                         !- Name
  RoofCeiling,                            !- Surface Type
  {b094ff09-2683-4fe0-9454-440534fc1f8c}, !- Construction Name
  {af4fe011-bafb-4daf-82e3-7628a38c88df}, !- Space Name
  Outdoors,                               !- Outside Boundary Condition
  ,                                       !- Outside Boundary Condition Object
  NoSun,                                  !- Sun Exposure
  NoWind,                                 !- Wind Exposure
  ,                                       !- View Factor to Ground
  ,                                       !- Number of Vertices
  0, 0, 4.85,                             !- X,Y,Z Vertex 1 {m}
  15.68, 0, 4.85,                         !- X,Y,Z Vertex 2 {m}
  15.68, 8.48, 4.85,                      !- X,Y,Z Vertex 3 {m}
  0, 8.48, 4.85;                          !- X,Y,Z Vertex 4 {m}

OS:Surface,
  {3af2dda4-a872-4bc5-80a6-a0fe0877038e}, !- Handle
  Стена_Ю,                          !- Name
  Wall,                                   !- Surface Type
  {8c7f9f93-6d8d-43eb-8ac1-76178194437c}, !- Construction Name
  {af4fe011-bafb-4daf-82e3-7628a38c88df}, !- Space Name
  Outdoors,                               !- Outside Boundary Condition
  ,                                       !- Outside Boundary Condition Object
  SunExposed,                             !- Sun Exposure
  WindExposed,                            !- Wind Exposure
  ,                                       !- View Factor to Ground
  ,                                       !- Number of Vertices
  15.68, 0, 0,                            !- X,Y,Z Vertex 1 {m}
  15.68, 0, 4.85,                         !- X,Y,Z Vertex 2 {m}
  0, 0, 4.85,                             !- X,Y,Z Vertex 3 {m}
  0, 0, 0;                                !- X,Y,Z Vertex 4 {m}

OS:Surface,
  {8e8a1d6b-75ae-4288-88b2-12c23b95900f}, !- Handle
  Стена_С,                          !- Name
  Wall,                                   !- Surface Type
  {8c7f9f93-6d8d-43eb-8ac1-76178194437c}, !- Construction Name
  {af4fe011-bafb-4daf-82e3-7628a38c88df}, !- Space Name
  Outdoors,                               !- Outside Boundary Condition
  ,                                       !- Outside Boundary Condition Object
  SunExposed,                             !- Sun Exposure
  WindExposed,                            !- Wind Exposure
  ,                                       !- View Factor to Ground
  ,                                       !- Number of Vertices
  0, 8.48, 0,                             !- X,Y,Z Vertex 1 {m}
  0, 8.48, 4.85,                          !- X,Y,Z Vertex 2 {m}
  15.68, 8.48, 4.85,                      !- X,Y,Z Vertex 3 {m}
  15.68, 8.48, 0;                         !- X,Y,Z Vertex 4 {m}

OS:Surface,
  {9e5c9ec6-3824-47a7-a03b-c1f8ee6e5bc8}, !- Handle
  Стена_З,                          !- Name
  Wall,                                   !- Surface Type
  {80abd91e-1ef4-411b-a14d-f0b00eb019ea}, !- Construction Name
  {af4fe011-bafb-4daf-82e3-7628a38c88df}, !- Space Name
  Outdoors,                               !- Outside Boundary Condition
  ,                                       !- Outside Boundary Condition Object
  SunExposed,                             !- Sun Exposure
  WindExposed,                            !- Wind Exposure
  ,                                       !- View Factor to Ground
  ,                                       !- Number of Vertices
  0, 0, 0,                                !- X,Y,Z Vertex 1 {m}
  0, 0, 4.85,                             !- X,Y,Z Vertex 2 {m}
  0, 8.48, 4.85,                          !- X,Y,Z Vertex 3 {m}
  0, 8.48, 0;                             !- X,Y,Z Vertex 4 {m}

OS:Surface,
  {57dd37ac-ee5b-4fb9-b310-adaa1993798b}, !- Handle
  Стена_В,                          !- Name
  Wall,                                   !- Surface Type
  {80abd91e-1ef4-411b-a14d-f0b00eb019ea}, !- Construction Name
  {af4fe011-bafb-4daf-82e3-7628a38c88df}, !- Space Name
  Outdoors,                               !- Outside Boundary Condition
  ,                                       !- Outside Boundary Condition Object
  SunExposed,                             !- Sun Exposure
  WindExposed,                            !- Wind Exposure
  ,                                       !- View Factor to Ground
  ,                                       !- Number of Vertices
  15.68, 8.48, 0,                         !- X,Y,Z Vertex 1 {m}
  15.68, 8.48, 4.85,                      !- X,Y,Z Vertex 2 {m}
  15.68, 0, 4.85,                         !- X,Y,Z Vertex 3 {m}
  15.68, 0, 0;                            !- X,Y,Z Vertex 4 {m}

OS:ScheduleTypeLimits,
  {091c5cb1-e22d-4e32-a976-334690050d68}, !- Handle
  Заполняемость_Base_Rec_Limits, !- Name
  0,                                      !- Lower Limit Value
  1,                                      !- Upper Limit Value
  Continuous,                             !- Numeric Type
  Dimensionless;                          !- Unit Type

OS:Schedule:Ruleset,
  {4ac55d27-98b3-461d-b185-327618d6b42b}, !- Handle
  Заполняемость_Base_Rec,    !- Name
  {091c5cb1-e22d-4e32-a976-334690050d68}, !- Schedule Type Limits Name
  {bf04256b-ebef-49e2-80ae-15448eb8d59f}; !- Default Day Schedule Name

OS:Schedule:Day,
  {bf04256b-ebef-49e2-80ae-15448eb8d59f}, !- Handle
  Schedule Day 1,                         !- Name
  {091c5cb1-e22d-4e32-a976-334690050d68}, !- Schedule Type Limits Name
  ,                                       !- Interpolate to Timestep
  1,                                      !- Hour 1
  0,                                      !- Minute 1
  0,                                      !- Value Until Time 1
  2,                                      !- Hour 2
  0,                                      !- Minute 2
  0,                                      !- Value Until Time 2
  3,                                      !- Hour 3
  0,                                      !- Minute 3
  0,                                      !- Value Until Time 3
  4,                                      !- Hour 4
  0,                                      !- Minute 4
  0,                                      !- Value Until Time 4
  5,                                      !- Hour 5
  0,                                      !- Minute 5
  0,                                      !- Value Until Time 5
  6,                                      !- Hour 6
  0,                                      !- Minute 6
  0,                                      !- Value Until Time 6
  7,                                      !- Hour 7
  0,                                      !- Minute 7
  0,                                      !- Value Until Time 7
  8,                                      !- Hour 8
  0,                                      !- Minute 8
  0,                                      !- Value Until Time 8
  9,                                      !- Hour 9
  0,                                      !- Minute 9
  0.1,                                    !- Value Until Time 9
  10,                                     !- Hour 10
  0,                                      !- Minute 10
  0.1,                                    !- Value Until Time 10
  11,                                     !- Hour 11
  0,                                      !- Minute 11
  0.2,                                    !- Value Until Time 11
  12,                                     !- Hour 12
  0,                                      !- Minute 12
  0.85,                                   !- Value Until Time 12
  13,                                     !- Hour 13
  0,                                      !- Minute 13
  0.85,                                   !- Value Until Time 13
  14,                                     !- Hour 14
  0,                                      !- Minute 14
  0.85,                                   !- Value Until Time 14
  15,                                     !- Hour 15
  0,                                      !- Minute 15
  0.85,                                   !- Value Until Time 15
  16,                                     !- Hour 16
  0,                                      !- Minute 16
  0.15,                                   !- Value Until Time 16
  17,                                     !- Hour 17
  0,                                      !- Minute 17
  0.8,                                    !- Value Until Time 17
  18,                                     !- Hour 18
  0,                                      !- Minute 18
  0.8,                                    !- Value Until Time 18
  19,                                     !- Hour 19
  0,                                      !- Minute 19
  0.15,                                   !- Value Until Time 19
  20,                                     !- Hour 20
  0,                                      !- Minute 20
  0.92,                                   !- Value Until Time 20
  21,                                     !- Hour 21
  0,                                      !- Minute 21
  0.92,                                   !- Value Until Time 21
  22,                                     !- Hour 22
  0,                                      !- Minute 22
  0.2,                                    !- Value Until Time 22
  23,                                     !- Hour 23
  0,                                      !- Minute 23
  0.82,                                   !- Value Until Time 23
  24,                                     !- Hour 24
  0,                                      !- Minute 24
  0.82;                                   !- Value Until Time 24

OS:Schedule:Rule,
  {596ecfb6-b872-48cb-9973-9b97f02e1af8}, !- Handle
  Schedule Rule 1,                        !- Name
  {4ac55d27-98b3-461d-b185-327618d6b42b}, !- Schedule Ruleset Name
  0,                                      !- Rule Order
  {59ca50a0-22b6-41ff-954c-7087cd386716}, !- Day Schedule Name
  Yes,                                    !- Apply Sunday
  ,                                       !- Apply Monday
  ,                                       !- Apply Tuesday
  ,                                       !- Apply Wednesday
  ,                                       !- Apply Thursday
  ,                                       !- Apply Friday
  Yes;                                    !- Apply Saturday

OS:Schedule:Day,
  {59ca50a0-22b6-41ff-954c-7087cd386716}, !- Handle
  Schedule Day 2,                         !- Name
  {091c5cb1-e22d-4e32-a976-334690050d68}, !- Schedule Type Limits Name
  ,                                       !- Interpolate to Timestep
  1,                                      !- Hour 1
  0,                                      !- Minute 1
  0,                                      !- Value Until Time 1
  2,                                      !- Hour 2
  0,                                      !- Minute 2
  0,                                      !- Value Until Time 2
  3,                                      !- Hour 3
  0,                                      !- Minute 3
  0,                                      !- Value Until Time 3
  4,                                      !- Hour 4
  0,                                      !- Minute 4
  0,                                      !- Value Until Time 4
  5,                                      !- Hour 5
  0,                                      !- Minute 5
  0,                                      !- Value Until Time 5
  6,                                      !- Hour 6
  0,                                      !- Minute 6
  0,                                      !- Value Until Time 6
  7,                                      !- Hour 7
  0,                                      !- Minute 7
  0,                                      !- Value Until Time 7
  8,                                      !- Hour 8
  0,                                      !- Minute 8
  0,                                      !- Value Until Time 8
  9,                                      !- Hour 9
  0,                                      !- Minute 9
  0.1,                                    !- Value Until Time 9
  10,                                     !- Hour 10
  0,                                      !- Minute 10
  0.1,                                    !- Value Until Time 10
  11,                                     !- Hour 11
  0,                                      !- Minute 11
  0.88,                                   !- Value Until Time 11
  12,                                     !- Hour 12
  0,                                      !- Minute 12
  0.88,                                   !- Value Until Time 12
  13,                                     !- Hour 13
  0,                                      !- Minute 13
  0.92,                                   !- Value Until Time 13
  14,                                     !- Hour 14
  0,                                      !- Minute 14